 Abaqus/Standard 3DEXPERIENCE R2018x                  DATE 04-Oct-2021 TIME 07:54:29
 SUMMARY OF JOB INFORMATION:
 STEP  INC ATT SEVERE EQUIL TOTAL  TOTAL      STEP       INC OF       DOF    IF
               DISCON ITERS ITERS  TIME/    TIME/LPF    TIME/LPF    MONITOR RIKS
               ITERS               FREQ
   1     1   1     0     2     2  0.00100    0.00100    0.001000  
   1     2   1     0     1     1  0.00200    0.00200    0.001000  
   1     3   1     0     1     1  0.00350    0.00350    0.001500  
   1     4   1     0     1     1  0.00575    0.00575    0.002250  
   1     5   1     0     1     1  0.00913    0.00913    0.003375  
   1     6   1     0     1     1  0.0100     0.0100     0.0008750 
   1     7   1     0     1     1  0.0176     0.0176     0.007594  
   1     8   1     0     1     1  0.0200     0.0200     0.002406  
   1     9   1     0     1     1  0.0300     0.0300     0.01000   
   1    10   1     0     1     1  0.0400     0.0400     0.01000   
   1    11   1     0     1     1  0.0500     0.0500     0.01000   
   1    12   1     0     1     1  0.0600     0.0600     0.01000   
   1    13   1     0     1     1  0.0700     0.0700     0.01000   
   1    14   1     0     1     1  0.0800     0.0800     0.01000   
   1    15   1     0     1     1  0.0900     0.0900     0.01000   
   1    16   1     0     1     1  0.100      0.100      0.01000   
   1    17   1     0     1     1  0.110      0.110      0.01000   
   1    18   1     0     1     1  0.120      0.120      0.01000   
   1    19   1     0     1     1  0.130      0.130      0.01000   
   1    20   1     0     1     1  0.140      0.140      0.01000   
   1    21   1     0     1     1  0.150      0.150      0.01000   
   1    22   1     0     1     1  0.160      0.160      0.01000   
   1    23   1     0     1     1  0.170      0.170      0.01000   
   1    24   1     0     1     1  0.180      0.180      0.01000   
   1    25   1     0     1     1  0.190      0.190      0.01000   
   1    26   1     0     1     1  0.200      0.200      0.01000   
   1    27   1     0     1     1  0.210      0.210      0.01000   
   1    28   1     0     1     1  0.220      0.220      0.01000   
   1    29   1     0     1     1  0.230      0.230      0.01000   
   1    30   1     0     1     1  0.240      0.240      0.01000   
   1    31   1     0     1     1  0.250      0.250      0.01000   
   1    32   1     0     1     1  0.260      0.260      0.01000   
   1    33   1     0     1     1  0.270      0.270      0.01000   
   1    34   1     0     1     1  0.280      0.280      0.01000   
   1    35   1     0     1     1  0.290      0.290      0.01000   
   1    36   1     0     1     1  0.300      0.300      0.01000   
   1    37   1     0     1     1  0.310      0.310      0.01000   
   1    38   1     0     1     1  0.320      0.320      0.01000   
   1    39   1     0     1     1  0.330      0.330      0.01000   
   1    40   1     0     1     1  0.340      0.340      0.01000   
   1    41   1     0     1     1  0.350      0.350      0.01000   
   1    42   1     0     1     1  0.360      0.360      0.01000   
   1    43   1     0     1     1  0.370      0.370      0.01000   
   1    44   1     0     1     1  0.380      0.380      0.01000   
   1    45   1U    0    16    16  0.380      0.380      0.01000   
   1    45   2     0     2     2  0.383      0.383      0.002500  
   1    46   1     0    10    10  0.386      0.386      0.003750  
   1    47   1U    0    16    16  0.386      0.386      0.003750  
   1    47   2U    0    16    16  0.386      0.386      0.0009375 
   1    47   3     0     5     5  0.386      0.386      0.0002344 
   1    48   1     0     1     1  0.387      0.387      0.0002344 
   1    49   1     0    10    10  0.387      0.387      0.0002344 
   1    50   1     0    10    10  0.387      0.387      0.0002344 
   1    51   1     0    10    10  0.387      0.387      0.0002344 
   1    52   1     0    10    10  0.388      0.388      0.0002344 
   1    53   1     0     1     1  0.388      0.388      0.0002344 
   1    54   1     0     1     1  0.388      0.388      0.0002344 
   1    55   1     0    10    10  0.388      0.388      0.0003516 
   1    56   1     0    10    10  0.389      0.389      0.0003516 
   1    57   1     0    10    10  0.389      0.389      0.0003516 
   1    58   1     0     1     1  0.390      0.390      0.0003516 
   1    59   1     0     1     1  0.390      0.390      0.0003516 
   1    60   1     0     1     1  0.390      0.390      0.0001172 
   1    61   1     0     6     6  0.391      0.391      0.0007910 
   1    62   1     0    10    10  0.392      0.392      0.0007910 
   1    63   1     0     5     5  0.392      0.392      0.0007910 
   1    64   1     0     1     1  0.393      0.393      0.0007910 
   1    65   1     0     1     1  0.394      0.394      0.0007910 
   1    66   1     0     1     1  0.395      0.395      0.001187  
   1    67   1     0     1     1  0.397      0.397      0.001780  
   1    68   1     0     1     1  0.400      0.400      0.003079  
   1    69   1     0     8     8  0.405      0.405      0.004618  
   1    70   1     0     2     2  0.410      0.410      0.005382  
   1    71   1     0     1     1  0.415      0.415      0.005382  
   1    72   1     0     1     1  0.420      0.420      0.004618  
   1    73   1     0     1     1  0.430      0.430      0.01000   
   1    74   1     0     1     1  0.440      0.440      0.01000   
   1    75   1U    0     4     4  0.440      0.440      0.01000   
   1    75   2     0     1     1  0.443      0.443      0.002500  
   1    76   1     0     1     1  0.446      0.446      0.003750  
   1    77   1U    0     4     4  0.446      0.446      0.003750  
   1    77   2     0     1     1  0.447      0.447      0.0009375 
   1    78   1U    0     4     4  0.447      0.447      0.001406  
   1    78   2     0     1     1  0.448      0.448      0.0003516 
   1    79   1U    0     4     4  0.448      0.448      0.0005273 
   1    79   2U    0     4     4  0.448      0.448      0.0001318 
   1    79   3U    0    16    16  0.448      0.448      3.296e-05 
   1    79   4U    0    16    16  0.448      0.448      8.240e-06 
   1    79   5U    0    16    16  0.448      0.448      2.060e-06 
   1    79   6U    0    16    16  0.448      0.448      5.150e-07 
   1    79   7U    0    16    16  0.448      0.448      1.287e-07 
   1    79   8U    0    16    16  0.448      0.448      3.219e-08 
   1    79   9U    0    16    16  0.448      0.448      8.047e-09 
   1    79  10U    0    16    16  0.448      0.448      2.012e-09 
   1    79  11U    0    16    16  0.448      0.448      5.029e-10 
   1    79  12U    0    16    16  0.448      0.448      1.257e-10 
   1    79  13U    0    16    16  0.448      0.448      3.143e-11 
   1    79  14U    0    16    16  0.448      0.448      7.858e-12 
   1    79  15U    0    16    16  0.448      0.448      1.965e-12 
                          
 THE ANALYSIS HAS NOT BEEN COMPLETED
