1

   Abaqus 3DEXPERIENCE R2018x                                  Date 02-Oct-2021   Time 17:55:44
   For use by Supplied by Team-SolidSQUAD under license from Dassault Systemes or its subsidiary.

                                                                                 
                                                                                 
 STEP    1     INCREMENT     1     STEP TIME    0.00    


                        S T E P       1     S T A T I C   A N A L Y S I S


                                                                                          

     AUTOMATIC TIME CONTROL WITH -
          A SUGGESTED INITIAL TIME INCREMENT OF                1.000E-03
          AND A TOTAL TIME PERIOD OF                            1.00    
          THE MINIMUM TIME INCREMENT ALLOWED IS                1.000E-15
          THE MAXIMUM TIME INCREMENT ALLOWED IS                1.000E-02

     LINEAR EQUATION SOLVER TYPE         DIRECT SPARSE

 CONVERGENCE TOLERANCE PARAMETERS FOR FORCE    
     CRITERION FOR RESIDUAL FORCE     FOR A NONLINEAR PROBLEM          5.000E-03
     CRITERION FOR DISP.    CORRECTION IN A NONLINEAR PROBLEM          1.000E-02
     INITIAL VALUE OF TIME AVERAGE FORCE                               1.000E-02
     AVERAGE FORCE     IS TIME AVERAGE FORCE    
     ALTERNATE CRIT. FOR RESIDUAL FORCE     FOR A NONLINEAR PROBLEM    2.000E-02
     CRITERION FOR ZERO FORCE     RELATIVE TO TIME AVRG. FORCE         1.000E-05
     CRITERION FOR RESIDUAL FORCE     WHEN THERE IS ZERO FLUX          1.000E-05
     CRITERION FOR DISP.    CORRECTION WHEN THERE IS ZERO FLUX         1.000E-03
     CRITERION FOR RESIDUAL FORCE     FOR A LINEAR INCREMENT           1.000E-08
     FIELD CONVERSION RATIO                                             1.00    
     CRITERION FOR ZERO FORCE     REL. TO TIME AVRG. MAX. FORCE        1.000E-05
     CRITERION FOR ZERO DISP.    RELATIVE TO CHARACTERISTIC LENGTH     1.000E-08

 CONVERGENCE TOLERANCE PARAMETERS FOR MOMENT   
     CRITERION FOR RESIDUAL MOMENT    FOR A NONLINEAR PROBLEM          5.000E-03
     CRITERION FOR ROTATION CORRECTION IN A NONLINEAR PROBLEM          1.000E-02
     INITIAL VALUE OF TIME AVERAGE MOMENT                              1.000E-02
     AVERAGE MOMENT    IS TIME AVERAGE MOMENT   
     ALTERNATE CRIT. FOR RESIDUAL MOMENT    FOR A NONLINEAR PROBLEM    2.000E-02
     CRITERION FOR ZERO MOMENT    RELATIVE TO TIME AVRG. MOMENT        1.000E-05
     CRITERION FOR RESIDUAL MOMENT    WHEN THERE IS ZERO FLUX          1.000E-05
     CRITERION FOR ROTATION CORRECTION WHEN THERE IS ZERO FLUX         1.000E-03
     CRITERION FOR RESIDUAL MOMENT    FOR A LINEAR INCREMENT           1.000E-08
     FIELD CONVERSION RATIO                                             1.00    
     CRITERION FOR ZERO MOMENT    REL. TO TIME AVRG. MAX. MOMENT       1.000E-05

     VOLUMETRIC STRAIN COMPATIBILITY TOLERANCE FOR HYBRID SOLIDS       1.000E-05
     AXIAL STRAIN COMPATIBILITY TOLERANCE FOR HYBRID BEAMS             1.000E-05
     TRANS. SHEAR STRAIN COMPATIBILITY TOLERANCE FOR HYBRID BEAMS      1.000E-05
     SOFT CONTACT CONSTRAINT COMPATIBILITY TOLERANCE FOR P>P0          5.000E-03
     SOFT CONTACT CONSTRAINT COMPATIBILITY TOLERANCE FOR P=0.0         0.100    
     CONTACT FORCE ERROR TOLERANCE FOR CONVERT SDI=YES                 1.00    
     DISPLACEMENT COMPATIBILITY TOLERANCE FOR DCOUP ELEMENTS           1.000E-05
     ROTATION COMPATIBILITY TOLERANCE FOR DCOUP ELEMENTS               1.000E-05

 EQUILIBRIUM WILL BE CHECKED FOR SEVERE DISCONTINUITY ITERATIONS

 TIME INCREMENTATION CONTROL PARAMETERS:
     FIRST EQUILIBRIUM ITERATION FOR CONSECUTIVE DIVERGENCE CHECK              4
     EQUILIBRIUM ITERATION AT WHICH LOG. CONVERGENCE RATE CHECK BEGINS         8
     EQUILIBRIUM ITERATION AFTER WHICH ALTERNATE RESIDUAL IS USED              9
     MAXIMUM EQUILIBRIUM ITERATIONS ALLOWED                                   16
     EQUILIBRIUM ITERATION COUNT FOR CUT-BACK IN NEXT INCREMENT               10
     MAXIMUM EQUILIB. ITERS IN TWO INCREMENTS FOR TIME INCREMENT INCREASE      4
     MAXIMUM ITERATIONS FOR SEVERE DISCONTINUITIES                            50
 *** MAXIMUM ATTEMPTS ALLOWED IN AN INCREMENT                                 15
     MAXIMUM DISCON. ITERS IN TWO INCREMENTS FOR TIME INCREMENT INCREASE      50
     MAXIMUM CONTACT AUGMENTATIONS FOR *SURFACE BEHAVIOR,AUGMENTED LAGRANGE   50
     CUT-BACK FACTOR AFTER DIVERGENCE                                 0.2500    
     CUT-BACK FACTOR FOR TOO SLOW CONVERGENCE                         0.5000    
     CUT-BACK FACTOR AFTER TOO MANY EQUILIBRIUM ITERATIONS            0.7500    
     CUT-BACK FACTOR AFTER TOO MANY SEVERE DISCONTINUITY ITERATIONS   0.2500    
     CUT-BACK FACTOR AFTER PROBLEMS IN ELEMENT ASSEMBLY               0.2500    
     INCREASE FACTOR AFTER TWO INCREMENTS THAT CONVERGE QUICKLY        1.500    
     MAX. TIME INCREMENT INCREASE FACTOR ALLOWED                       1.500    
     MAX. TIME INCREMENT INCREASE FACTOR ALLOWED (DYNAMICS)            1.250    
     MAX. TIME INCREMENT INCREASE FACTOR ALLOWED (DIFFUSION)           2.000    
     MINIMUM TIME INCREMENT RATIO FOR EXTRAPOLATION TO OCCUR          0.1000    
     MAX. RATIO OF TIME INCREMENT TO STABILITY LIMIT                   1.000    
     FRACTION OF STABILITY LIMIT FOR NEW TIME INCREMENT               0.9500    
     TIME INCREMENT INCREASE FACTOR BEFORE A TIME POINT                1.000    

 *** INDICATES USE OF NON-DEFAULT TIME INCREMENTATION CONTROL PARAMETER
     SELECTED WITH *CONTROLS
     GLOBAL STABILIZATION CONTROL IS NOT USED

          PRINT OF INCREMENT NUMBER, TIME, ETC., EVERY    1  INCREMENTS

     THE MAXIMUM NUMBER OF INCREMENTS IN THIS STEP IS                 *******

          LARGE DISPLACEMENT THEORY WILL BE USED

     LINEAR EXTRAPOLATION WILL BE USED

     CHARACTERISTIC ELEMENT LENGTH     0.518    

     DETAILS REGARDING ACTUAL SOLUTION WAVEFRONT REQUESTED

     DETAILED OUTPUT OF DIAGNOSTICS TO DATABASE REQUESTED

     PRINT OF INCREMENT NUMBER, TIME, ETC., TO THE MESSAGE FILE EVERY     1  INCREMENTS

     ELEMENT OPERATIONS WILL BE CARRIED OUT IN PARALLEL USING   7 PROCESSORS

     PARALLEL CONTACT TRACKING ENABLED


     COLLECTING MODEL CONSTRAINT INFORMATION FOR OVERCONSTRAINT CHECKS

     COLLECTING STEP CONSTRAINT INFORMATION FOR OVERCONSTRAINT CHECKS
 
     GPU SOLVER ACCELERATION ENABLED

  
     ASYNCHRONOUS OUTPUT DATABASE FRAME FLUSH STARTED
  


  INCREMENT     1 STARTS. ATTEMPT NUMBER  1, TIME INCREMENT  1.000E-03
 
     INITIAL ELEMENT LOAD BALANCE
        COMPUTE NODE   1   PROCESS    NUMBER OF ELEMENTS
                              1            2304
                              2            2304
                              3            2304
                              4            2304
                              5            2152
                              6            2048
                              7            2304

  NUMBER OF EQUATIONS =     63180     NUMBER OF RHS =    1
  NUMBER OF FLOATING PT. OPERATIONS =  5.68E+09

  USING THE DIRECT SOLVER WITH   7 PROCESSORS

     CHECK POINT   START OF SOLVER    

     CHECK POINT  END OF SOLVER       

       ELAPSED USER TIME (SEC)      =   1.3000    
       ELAPSED SYSTEM TIME (SEC)    =  0.10000    
       ELAPSED TOTAL CPU TIME (SEC) =   1.4000    
       ELAPSED WALLCLOCK TIME (SEC) =          1
 

 ***WARNING: SOLVER PROBLEM. NUMERICAL SINGULARITY WHEN PROCESSING NODE 
             CEINST.2101 D.O.F. 1 RATIO = 48.4305E+12 .
 

 ***WARNING: SOLVER PROBLEM. NUMERICAL SINGULARITY WHEN PROCESSING NODE 
             CEINST.2101 D.O.F. 3 RATIO = 1.71609E+12.

               CONVERGENCE CHECKS FOR EQUILIBRIUM ITERATION     1


 AVERAGE FORCE                      1.249E-03   TIME AVG. FORCE       1.249E-03
 LARGEST RESIDUAL FORCE             2.195E-04   AT NODE       2546   DOF  1
   INSTANCE: PTOP                                                                            
 LARGEST INCREMENT OF DISP.        -3.000E-03   AT NODE          3   DOF  3
   INSTANCE: PBOT                                                                            
 LARGEST CORRECTION TO DISP.       -3.000E-03   AT NODE          3   DOF  3
   INSTANCE: PBOT                                                                            
          FORCE     EQUILIBRIUM NOT ACHIEVED WITHIN TOLERANCE.

 AVERAGE MOMENT                      0.00       TIME AVG. MOMENT      1.000E-02
 LARGEST RESIDUAL MOMENT           -1.510E-03   AT NODE          1   DOF  5
   INSTANCE:                                                                                 
 LARGEST INCREMENT OF ROTATION     -2.827E-05   AT NODE          2   DOF  5
   INSTANCE: {assembly node}                                                                 
 LARGEST CORRECTION TO ROTATION    -2.827E-05   AT NODE          2   DOF  5
   INSTANCE: {assembly node}                                                                 
          THE MOMENT    IS ZERO EVERYWHERE BUT THE MOMENT    RESIDUAL OR
          THE ROTATION CORRECTION IS NON-ZERO

  NUMBER OF EQUATIONS =     63180     NUMBER OF RHS =    1
  NUMBER OF FLOATING PT. OPERATIONS =  5.68E+09

  USING THE DIRECT SOLVER WITH   7 PROCESSORS

     CHECK POINT   START OF SOLVER    

     CHECK POINT  END OF SOLVER       

       ELAPSED USER TIME (SEC)      =   1.2000    
       ELAPSED SYSTEM TIME (SEC)    =   0.0000    
       ELAPSED TOTAL CPU TIME (SEC) =   1.2000    
       ELAPSED WALLCLOCK TIME (SEC) =          0

               CONVERGENCE CHECKS FOR EQUILIBRIUM ITERATION     2


 AVERAGE FORCE                      1.249E-03   TIME AVG. FORCE       1.249E-03
 LARGEST RESIDUAL FORCE            -6.556E-07   AT NODE       2546   DOF  3
   INSTANCE: PBOT                                                                            
 LARGEST INCREMENT OF DISP.        -3.000E-03   AT NODE          3   DOF  3
   INSTANCE: PBOT                                                                            
 LARGEST CORRECTION TO DISP.        3.164E-05   AT NODE        353   DOF  1
   INSTANCE: PBOT                                                                            
 ESTIMATE OF DISP.    CORRECTION   -9.453E-08
 FORCE     EQUILIB. ACCEPTED BASED ON SMALL RESIDUAL AND ESTIMATED CORRECTION

 AVERAGE MOMENT                      0.00       TIME AVG. MOMENT      1.000E-02
 LARGEST RESIDUAL MOMENT            1.293E-08   AT NODE          2   DOF  5
   INSTANCE:                                                                                 
 LARGEST INCREMENT OF ROTATION     -1.999E-08   AT NODE          2   DOF  5
   INSTANCE: {assembly node}                                                                 
 LARGEST CORRECTION TO ROTATION     2.825E-05   AT NODE          2   DOF  5
   INSTANCE: {assembly node}                                                                 
          THERE IS ZERO MOMENT    EVERYWHERE

 ITERATION SUMMARY FOR THE INCREMENT:   2 TOTAL ITERATIONS, OF WHICH
   0 ARE SEVERE DISCONTINUITY ITERATIONS AND  2 ARE EQUILIBRIUM ITERATIONS.

 TIME INCREMENT COMPLETED  1.000E-03,  FRACTION OF STEP COMPLETED  1.000E-03
 STEP TIME COMPLETED       1.000E-03,  TOTAL TIME COMPLETED        1.000E-03


  INCREMENT     2 STARTS. ATTEMPT NUMBER  1, TIME INCREMENT  1.000E-03

  NUMBER OF EQUATIONS =     63180     NUMBER OF RHS =    1
  NUMBER OF FLOATING PT. OPERATIONS =  5.68E+09

  USING THE DIRECT SOLVER WITH   7 PROCESSORS

     CHECK POINT   START OF SOLVER    

     CHECK POINT  END OF SOLVER       

       ELAPSED USER TIME (SEC)      =   1.3000    
       ELAPSED SYSTEM TIME (SEC)    =  0.10000    
       ELAPSED TOTAL CPU TIME (SEC) =   1.4000    
       ELAPSED WALLCLOCK TIME (SEC) =          1

               CONVERGENCE CHECKS FOR EQUILIBRIUM ITERATION     1


 AVERAGE FORCE                      5.236E-03   TIME AVG. FORCE       3.242E-03
 LARGEST RESIDUAL FORCE             5.992E-09   AT NODE       2530   DOF  1
   INSTANCE: PTOP                                                                            
 LARGEST INCREMENT OF DISP.         3.000E-03   AT NODE          1   DOF  3
   INSTANCE: {assembly node}                                                                 
 LARGEST CORRECTION TO DISP.        3.539E-06   AT NODE         11   DOF  3
   INSTANCE: PTOP                                                                            
          THE FORCE     EQUILIBRIUM EQUATIONS HAVE CONVERGED

 AVERAGE MOMENT                      0.00       TIME AVG. MOMENT      1.000E-02
 LARGEST RESIDUAL MOMENT            2.180E-08   AT NODE          1   DOF  5
   INSTANCE:                                                                                 
 LARGEST INCREMENT OF ROTATION      2.614E-08   AT NODE          2   DOF  5
   INSTANCE: {assembly node}                                                                 
 LARGEST CORRECTION TO ROTATION     4.613E-08   AT NODE          2   DOF  5
   INSTANCE: {assembly node}                                                                 
          THERE IS ZERO MOMENT    EVERYWHERE
          TIME INCREMENT MAY NOW INCREASE TO    1.500E-03

 ITERATION SUMMARY FOR THE INCREMENT:   1 TOTAL ITERATIONS, OF WHICH
   0 ARE SEVERE DISCONTINUITY ITERATIONS AND  1 ARE EQUILIBRIUM ITERATIONS.

 TIME INCREMENT COMPLETED  1.000E-03,  FRACTION OF STEP COMPLETED  2.000E-03
 STEP TIME COMPLETED       2.000E-03,  TOTAL TIME COMPLETED        2.000E-03


  INCREMENT     3 STARTS. ATTEMPT NUMBER  1, TIME INCREMENT  1.500E-03

  NUMBER OF EQUATIONS =     63180     NUMBER OF RHS =    1
  NUMBER OF FLOATING PT. OPERATIONS =  5.68E+09

  USING THE DIRECT SOLVER WITH   7 PROCESSORS

     CHECK POINT   START OF SOLVER    

     CHECK POINT  END OF SOLVER       

       ELAPSED USER TIME (SEC)      =   1.2000    
       ELAPSED SYSTEM TIME (SEC)    =  0.10000    
       ELAPSED TOTAL CPU TIME (SEC) =   1.3000    
       ELAPSED WALLCLOCK TIME (SEC) =          1

               CONVERGENCE CHECKS FOR EQUILIBRIUM ITERATION     1


 AVERAGE FORCE                      9.090E-03   TIME AVG. FORCE       5.191E-03
 LARGEST RESIDUAL FORCE             1.349E-08   AT NODE       2528   DOF  1
   INSTANCE: PBOT                                                                            
 LARGEST INCREMENT OF DISP.         4.500E-03   AT NODE          1   DOF  3
   INSTANCE: {assembly node}                                                                 
 LARGEST CORRECTION TO DISP.       -5.188E-06   AT NODE         11   DOF  3
   INSTANCE: PTOP                                                                            
          THE FORCE     EQUILIBRIUM EQUATIONS HAVE CONVERGED

 AVERAGE MOMENT                      0.00       TIME AVG. MOMENT      1.000E-02
 LARGEST RESIDUAL MOMENT           -3.313E-08   AT NODE          1   DOF  5
   INSTANCE:                                                                                 
 LARGEST INCREMENT OF ROTATION     -1.391E-08   AT NODE          1   DOF  5
   INSTANCE: {assembly node}                                                                 
 LARGEST CORRECTION TO ROTATION    -5.311E-08   AT NODE          2   DOF  5
   INSTANCE: {assembly node}                                                                 
          THERE IS ZERO MOMENT    EVERYWHERE
          TIME INCREMENT MAY NOW INCREASE TO    2.250E-03

 ITERATION SUMMARY FOR THE INCREMENT:   1 TOTAL ITERATIONS, OF WHICH
   0 ARE SEVERE DISCONTINUITY ITERATIONS AND  1 ARE EQUILIBRIUM ITERATIONS.

 TIME INCREMENT COMPLETED  1.500E-03,  FRACTION OF STEP COMPLETED  3.500E-03
 STEP TIME COMPLETED       3.500E-03,  TOTAL TIME COMPLETED        3.500E-03


  INCREMENT     4 STARTS. ATTEMPT NUMBER  1, TIME INCREMENT  2.250E-03

  NUMBER OF EQUATIONS =     63180     NUMBER OF RHS =    1
  NUMBER OF FLOATING PT. OPERATIONS =  5.68E+09

  USING THE DIRECT SOLVER WITH   7 PROCESSORS

     CHECK POINT   START OF SOLVER    

     CHECK POINT  END OF SOLVER       

       ELAPSED USER TIME (SEC)      =   1.2000    
       ELAPSED SYSTEM TIME (SEC)    =  0.10000    
       ELAPSED TOTAL CPU TIME (SEC) =   1.3000    
       ELAPSED WALLCLOCK TIME (SEC) =          0

               CONVERGENCE CHECKS FOR EQUILIBRIUM ITERATION     1


 AVERAGE FORCE                      1.484E-02   TIME AVG. FORCE       7.604E-03
 LARGEST RESIDUAL FORCE             2.097E-08   AT NODE       2530   DOF  1
   INSTANCE: PTOP                                                                            
 LARGEST INCREMENT OF DISP.         6.750E-03   AT NODE          1   DOF  3
   INSTANCE: {assembly node}                                                                 
 LARGEST CORRECTION TO DISP.        4.800E-06   AT NODE        377   DOF  3
   INSTANCE: PBOT                                                                            
          THE FORCE     EQUILIBRIUM EQUATIONS HAVE CONVERGED

 AVERAGE MOMENT                      0.00       TIME AVG. MOMENT      1.000E-02
 LARGEST RESIDUAL MOMENT            2.317E-08   AT NODE          2   DOF  5
   INSTANCE:                                                                                 
 LARGEST INCREMENT OF ROTATION      1.430E-08   AT NODE          2   DOF  5
   INSTANCE: {assembly node}                                                                 
 LARGEST CORRECTION TO ROTATION     3.516E-08   AT NODE          1   DOF  5
   INSTANCE: {assembly node}                                                                 
          THERE IS ZERO MOMENT    EVERYWHERE
          TIME INCREMENT MAY NOW INCREASE TO    3.375E-03

 ITERATION SUMMARY FOR THE INCREMENT:   1 TOTAL ITERATIONS, OF WHICH
   0 ARE SEVERE DISCONTINUITY ITERATIONS AND  1 ARE EQUILIBRIUM ITERATIONS.

 TIME INCREMENT COMPLETED  2.250E-03,  FRACTION OF STEP COMPLETED  5.750E-03
 STEP TIME COMPLETED       5.750E-03,  TOTAL TIME COMPLETED        5.750E-03


  INCREMENT     5 STARTS. ATTEMPT NUMBER  1, TIME INCREMENT  3.375E-03

  NUMBER OF EQUATIONS =     63180     NUMBER OF RHS =    1
  NUMBER OF FLOATING PT. OPERATIONS =  5.68E+09

  USING THE DIRECT SOLVER WITH   7 PROCESSORS

     CHECK POINT   START OF SOLVER    

     CHECK POINT  END OF SOLVER       

       ELAPSED USER TIME (SEC)      =   1.1000    
       ELAPSED SYSTEM TIME (SEC)    =   0.0000    
       ELAPSED TOTAL CPU TIME (SEC) =   1.1000    
       ELAPSED WALLCLOCK TIME (SEC) =          0

               CONVERGENCE CHECKS FOR EQUILIBRIUM ITERATION     1


 AVERAGE FORCE                      2.342E-02   TIME AVG. FORCE       1.077E-02
 LARGEST RESIDUAL FORCE             3.773E-08   AT NODE       2528   DOF  1
   INSTANCE: PBOT                                                                            
 LARGEST INCREMENT OF DISP.         1.013E-02   AT NODE          1   DOF  3
   INSTANCE: {assembly node}                                                                 
 LARGEST CORRECTION TO DISP.       -4.620E-06   AT NODE         14   DOF  3
   INSTANCE: CEINST                                                                          
          THE FORCE     EQUILIBRIUM EQUATIONS HAVE CONVERGED

 AVERAGE MOMENT                      0.00       TIME AVG. MOMENT      1.000E-02
 LARGEST RESIDUAL MOMENT           -3.766E-08   AT NODE          1   DOF  5
   INSTANCE:                                                                                 
 LARGEST INCREMENT OF ROTATION     -1.255E-08   AT NODE          2   DOF  5
   INSTANCE: {assembly node}                                                                 
 LARGEST CORRECTION TO ROTATION    -3.401E-08   AT NODE          2   DOF  5
   INSTANCE: {assembly node}                                                                 
          THERE IS ZERO MOMENT    EVERYWHERE
          TIME INCREMENT MAY NOW INCREASE TO    5.063E-03
          TIME INCREMENT REDUCED TO   8.750E-04 TO MEET NEXT OUTPUT TIME POINT

 ITERATION SUMMARY FOR THE INCREMENT:   1 TOTAL ITERATIONS, OF WHICH
   0 ARE SEVERE DISCONTINUITY ITERATIONS AND  1 ARE EQUILIBRIUM ITERATIONS.

 TIME INCREMENT COMPLETED  3.375E-03,  FRACTION OF STEP COMPLETED  9.125E-03
 STEP TIME COMPLETED       9.125E-03,  TOTAL TIME COMPLETED        9.125E-03


  INCREMENT     6 STARTS. ATTEMPT NUMBER  1, TIME INCREMENT  8.750E-04

  NUMBER OF EQUATIONS =     63180     NUMBER OF RHS =    1
  NUMBER OF FLOATING PT. OPERATIONS =  5.68E+09

  USING THE DIRECT SOLVER WITH   7 PROCESSORS

     CHECK POINT   START OF SOLVER    

     CHECK POINT  END OF SOLVER       

       ELAPSED USER TIME (SEC)      =   1.2000    
       ELAPSED SYSTEM TIME (SEC)    =   0.0000    
       ELAPSED TOTAL CPU TIME (SEC) =   1.2000    
       ELAPSED WALLCLOCK TIME (SEC) =          0

               CONVERGENCE CHECKS FOR EQUILIBRIUM ITERATION     1


 AVERAGE FORCE                      2.597E-02   TIME AVG. FORCE       1.330E-02
 LARGEST RESIDUAL FORCE             2.950E-09   AT NODE       2530   DOF  1
   INSTANCE: PTOP                                                                            
 LARGEST INCREMENT OF DISP.         2.625E-03   AT NODE          1   DOF  3
   INSTANCE: {assembly node}                                                                 
 LARGEST CORRECTION TO DISP.        1.301E-06   AT NODE         13   DOF  3
   INSTANCE: PBOT                                                                            
          THE FORCE     EQUILIBRIUM EQUATIONS HAVE CONVERGED

 AVERAGE MOMENT                      0.00       TIME AVG. MOMENT      1.000E-02
 LARGEST RESIDUAL MOMENT            2.594E-09   AT NODE          2   DOF  5
   INSTANCE:                                                                                 
 LARGEST INCREMENT OF ROTATION      6.393E-09   AT NODE          1   DOF  5
   INSTANCE: {assembly node}                                                                 
 LARGEST CORRECTION TO ROTATION     9.646E-09   AT NODE          1   DOF  5
   INSTANCE: {assembly node}                                                                 
          THERE IS ZERO MOMENT    EVERYWHERE
          TIME INCREMENT MAY NOW INCREASE TO    7.594E-03

 ITERATION SUMMARY FOR THE INCREMENT:   1 TOTAL ITERATIONS, OF WHICH
   0 ARE SEVERE DISCONTINUITY ITERATIONS AND  1 ARE EQUILIBRIUM ITERATIONS.

 TIME INCREMENT COMPLETED  8.750E-04,  FRACTION OF STEP COMPLETED  1.000E-02
 STEP TIME COMPLETED       1.000E-02,  TOTAL TIME COMPLETED        1.000E-02
  
     ASYNCHRONOUS OUTPUT DATABASE FRAME FLUSH STARTED
  


  INCREMENT     7 STARTS. ATTEMPT NUMBER  1, TIME INCREMENT  7.594E-03

  NUMBER OF EQUATIONS =     63180     NUMBER OF RHS =    1
  NUMBER OF FLOATING PT. OPERATIONS =  5.68E+09

  USING THE DIRECT SOLVER WITH   7 PROCESSORS

     CHECK POINT   START OF SOLVER    

     CHECK POINT  END OF SOLVER       

       ELAPSED USER TIME (SEC)      =   1.2000    
       ELAPSED SYSTEM TIME (SEC)    =  0.10000    
       ELAPSED TOTAL CPU TIME (SEC) =   1.3000    
       ELAPSED WALLCLOCK TIME (SEC) =          0

               CONVERGENCE CHECKS FOR EQUILIBRIUM ITERATION     1


 AVERAGE FORCE                      4.490E-02   TIME AVG. FORCE       1.782E-02
 LARGEST RESIDUAL FORCE             2.191E-07   AT NODE       2528   DOF  1
   INSTANCE: PBOT                                                                            
 LARGEST INCREMENT OF DISP.         2.278E-02   AT NODE          1   DOF  3
   INSTANCE: {assembly node}                                                                 
 LARGEST CORRECTION TO DISP.       -9.425E-06   AT NODE         14   DOF  3
   INSTANCE: PBOT                                                                            
          THE FORCE     EQUILIBRIUM EQUATIONS HAVE CONVERGED

 AVERAGE MOMENT                      0.00       TIME AVG. MOMENT      1.000E-02
 LARGEST RESIDUAL MOMENT           -1.889E-07   AT NODE          1   DOF  5
   INSTANCE:                                                                                 
 LARGEST INCREMENT OF ROTATION     -1.478E-08   AT NODE          2   DOF  5
   INSTANCE: {assembly node}                                                                 
 LARGEST CORRECTION TO ROTATION    -7.026E-08   AT NODE          1   DOF  5
   INSTANCE: {assembly node}                                                                 
          THE MOMENT    IS ZERO EVERYWHERE BUT THE MOMENT    RESIDUAL OR
          THE ROTATION CORRECTION IS NON-ZERO

  NUMBER OF EQUATIONS =     63180     NUMBER OF RHS =    1
  NUMBER OF FLOATING PT. OPERATIONS =  5.68E+09

  USING THE DIRECT SOLVER WITH   7 PROCESSORS

     CHECK POINT   START OF SOLVER    

     CHECK POINT  END OF SOLVER       

       ELAPSED USER TIME (SEC)      =   1.2000    
       ELAPSED SYSTEM TIME (SEC)    =   0.0000    
       ELAPSED TOTAL CPU TIME (SEC) =   1.2000    
       ELAPSED WALLCLOCK TIME (SEC) =          1

               CONVERGENCE CHECKS FOR EQUILIBRIUM ITERATION     2


 AVERAGE FORCE                      4.490E-02   TIME AVG. FORCE       1.782E-02
 LARGEST RESIDUAL FORCE             2.301E-08   AT NODE       2530   DOF  1
   INSTANCE: PTOP                                                                            
 LARGEST INCREMENT OF DISP.        -2.278E-02   AT NODE          3   DOF  3
   INSTANCE: PBOT                                                                            
 LARGEST CORRECTION TO DISP.        1.898E-06   AT NODE         13   DOF  3
   INSTANCE: PBOT                                                                            
          THE FORCE     EQUILIBRIUM EQUATIONS HAVE CONVERGED

 AVERAGE MOMENT                      0.00       TIME AVG. MOMENT      1.000E-02
 LARGEST RESIDUAL MOMENT            3.202E-08   AT NODE          2   DOF  5
   INSTANCE:                                                                                 
 LARGEST INCREMENT OF ROTATION     -4.020E-10   AT NODE          1   DOF  5
   INSTANCE: {assembly node}                                                                 
 LARGEST CORRECTION TO ROTATION     1.438E-08   AT NODE          2   DOF  5
   INSTANCE: {assembly node}                                                                 
          THERE IS ZERO MOMENT    EVERYWHERE
          TIME INCREMENT MAY NOW INCREASE TO    1.000E-02
          TIME INCREMENT REDUCED TO   2.406E-03 TO MEET NEXT OUTPUT TIME POINT

 ITERATION SUMMARY FOR THE INCREMENT:   2 TOTAL ITERATIONS, OF WHICH
   0 ARE SEVERE DISCONTINUITY ITERATIONS AND  2 ARE EQUILIBRIUM ITERATIONS.

 TIME INCREMENT COMPLETED  7.594E-03,  FRACTION OF STEP COMPLETED  1.759E-02
 STEP TIME COMPLETED       1.759E-02,  TOTAL TIME COMPLETED        1.759E-02


  INCREMENT     8 STARTS. ATTEMPT NUMBER  1, TIME INCREMENT  2.406E-03

  NUMBER OF EQUATIONS =     63180     NUMBER OF RHS =    1
  NUMBER OF FLOATING PT. OPERATIONS =  5.68E+09

  USING THE DIRECT SOLVER WITH   7 PROCESSORS

     CHECK POINT   START OF SOLVER    

     CHECK POINT  END OF SOLVER       

       ELAPSED USER TIME (SEC)      =   1.1000    
       ELAPSED SYSTEM TIME (SEC)    =  0.10000    
       ELAPSED TOTAL CPU TIME (SEC) =   1.2000    
       ELAPSED WALLCLOCK TIME (SEC) =          0

               CONVERGENCE CHECKS FOR EQUILIBRIUM ITERATION     1


 AVERAGE FORCE                      5.144E-02   TIME AVG. FORCE       2.202E-02
 LARGEST RESIDUAL FORCE             1.725E-08   AT NODE       2524   DOF  1
   INSTANCE: PTOP                                                                            
 LARGEST INCREMENT OF DISP.         7.219E-03   AT NODE          1   DOF  3
   INSTANCE: {assembly node}                                                                 
 LARGEST CORRECTION TO DISP.       -2.959E-06   AT NODE       3881   DOF  1
   INSTANCE: PTOP                                                                            
          THE FORCE     EQUILIBRIUM EQUATIONS HAVE CONVERGED

 AVERAGE MOMENT                      0.00       TIME AVG. MOMENT      1.000E-02
 LARGEST RESIDUAL MOMENT            5.587E-09   AT NODE          2   DOF  5
   INSTANCE:                                                                                 
 LARGEST INCREMENT OF ROTATION      7.373E-12   AT NODE          1   DOF  5
   INSTANCE: {assembly node}                                                                 
 LARGEST CORRECTION TO ROTATION     1.348E-10   AT NODE          1   DOF  5
   INSTANCE: {assembly node}                                                                 
          THERE IS ZERO MOMENT    EVERYWHERE

 ITERATION SUMMARY FOR THE INCREMENT:   1 TOTAL ITERATIONS, OF WHICH
   0 ARE SEVERE DISCONTINUITY ITERATIONS AND  1 ARE EQUILIBRIUM ITERATIONS.

 TIME INCREMENT COMPLETED  2.406E-03,  FRACTION OF STEP COMPLETED  2.000E-02
 STEP TIME COMPLETED       2.000E-02,  TOTAL TIME COMPLETED        2.000E-02
  
     ASYNCHRONOUS OUTPUT DATABASE FRAME FLUSH STARTED
  


  INCREMENT     9 STARTS. ATTEMPT NUMBER  1, TIME INCREMENT  1.000E-02

  NUMBER OF EQUATIONS =     63180     NUMBER OF RHS =    1
  NUMBER OF FLOATING PT. OPERATIONS =  5.68E+09

  USING THE DIRECT SOLVER WITH   7 PROCESSORS

     CHECK POINT   START OF SOLVER    

     CHECK POINT  END OF SOLVER       

       ELAPSED USER TIME (SEC)      =   1.1000    
       ELAPSED SYSTEM TIME (SEC)    =  0.10000    
       ELAPSED TOTAL CPU TIME (SEC) =   1.2000    
       ELAPSED WALLCLOCK TIME (SEC) =          0

               CONVERGENCE CHECKS FOR EQUILIBRIUM ITERATION     1


 AVERAGE FORCE                      7.640E-02   TIME AVG. FORCE       2.806E-02
 LARGEST RESIDUAL FORCE             2.824E-07   AT NODE       2522   DOF  1
   INSTANCE: PBOT                                                                            
 LARGEST INCREMENT OF DISP.         3.000E-02   AT NODE          1   DOF  3
   INSTANCE: {assembly node}                                                                 
 LARGEST CORRECTION TO DISP.       -1.554E-05   AT NODE        821   DOF  1
   INSTANCE: PBOT                                                                            
          THE FORCE     EQUILIBRIUM EQUATIONS HAVE CONVERGED

 AVERAGE MOMENT                      0.00       TIME AVG. MOMENT      1.141E-02
                                                (FROM FORCE     FIELD)
 LARGEST RESIDUAL MOMENT           -1.076E-07   AT NODE          1   DOF  5
   INSTANCE:                                                                                 
 LARGEST INCREMENT OF ROTATION     -1.461E-11   AT NODE          2   DOF  5
   INSTANCE: {assembly node}                                                                 
 LARGEST CORRECTION TO ROTATION    -4.520E-11   AT NODE          2   DOF  5
   INSTANCE: {assembly node}                                                                 
          THERE IS ZERO MOMENT    EVERYWHERE

 ITERATION SUMMARY FOR THE INCREMENT:   1 TOTAL ITERATIONS, OF WHICH
   0 ARE SEVERE DISCONTINUITY ITERATIONS AND  1 ARE EQUILIBRIUM ITERATIONS.

 TIME INCREMENT COMPLETED  1.000E-02,  FRACTION OF STEP COMPLETED  3.000E-02
 STEP TIME COMPLETED       3.000E-02,  TOTAL TIME COMPLETED        3.000E-02
  
     ASYNCHRONOUS OUTPUT DATABASE FRAME FLUSH STARTED
  


  INCREMENT    10 STARTS. ATTEMPT NUMBER  1, TIME INCREMENT  1.000E-02

  NUMBER OF EQUATIONS =     63180     NUMBER OF RHS =    1
  NUMBER OF FLOATING PT. OPERATIONS =  5.68E+09

  USING THE DIRECT SOLVER WITH   7 PROCESSORS

     CHECK POINT   START OF SOLVER    

     CHECK POINT  END OF SOLVER       

       ELAPSED USER TIME (SEC)      =   1.3000    
       ELAPSED SYSTEM TIME (SEC)    =   0.0000    
       ELAPSED TOTAL CPU TIME (SEC) =   1.3000    
       ELAPSED WALLCLOCK TIME (SEC) =          0

               CONVERGENCE CHECKS FOR EQUILIBRIUM ITERATION     1


 AVERAGE FORCE                      0.102       TIME AVG. FORCE       3.542E-02
 LARGEST RESIDUAL FORCE             4.522E-07   AT NODE       2524   DOF  1
   INSTANCE: PTOP                                                                            
 LARGEST INCREMENT OF DISP.         3.000E-02   AT NODE          1   DOF  3
   INSTANCE: {assembly node}                                                                 
 LARGEST CORRECTION TO DISP.       -2.480E-05   AT NODE        602   DOF  1
   INSTANCE: PTOP                                                                            
          THE FORCE     EQUILIBRIUM EQUATIONS HAVE CONVERGED

 AVERAGE MOMENT                      0.00       TIME AVG. MOMENT      1.454E-02
                                                (FROM FORCE     FIELD)
 LARGEST RESIDUAL MOMENT            8.285E-08   AT NODE          2   DOF  5
   INSTANCE:                                                                                 
 LARGEST INCREMENT OF ROTATION      1.009E-11   AT NODE          2   DOF  5
   INSTANCE: {assembly node}                                                                 
 LARGEST CORRECTION TO ROTATION     2.470E-11   AT NODE          2   DOF  5
   INSTANCE: {assembly node}                                                                 
          THERE IS ZERO MOMENT    EVERYWHERE

 ITERATION SUMMARY FOR THE INCREMENT:   1 TOTAL ITERATIONS, OF WHICH
   0 ARE SEVERE DISCONTINUITY ITERATIONS AND  1 ARE EQUILIBRIUM ITERATIONS.

 TIME INCREMENT COMPLETED  1.000E-02,  FRACTION OF STEP COMPLETED  4.000E-02
 STEP TIME COMPLETED       4.000E-02,  TOTAL TIME COMPLETED        4.000E-02
  
     ASYNCHRONOUS OUTPUT DATABASE FRAME FLUSH STARTED
  


  INCREMENT    11 STARTS. ATTEMPT NUMBER  1, TIME INCREMENT  1.000E-02

  NUMBER OF EQUATIONS =     63180     NUMBER OF RHS =    1
  NUMBER OF FLOATING PT. OPERATIONS =  5.68E+09

  USING THE DIRECT SOLVER WITH   7 PROCESSORS

     CHECK POINT   START OF SOLVER    

     CHECK POINT  END OF SOLVER       

       ELAPSED USER TIME (SEC)      =   1.2000    
       ELAPSED SYSTEM TIME (SEC)    =  0.10000    
       ELAPSED TOTAL CPU TIME (SEC) =   1.3000    
       ELAPSED WALLCLOCK TIME (SEC) =          0

               CONVERGENCE CHECKS FOR EQUILIBRIUM ITERATION     1


 AVERAGE FORCE                      0.127       TIME AVG. FORCE       4.376E-02
 LARGEST RESIDUAL FORCE             5.037E-07   AT NODE       2534   DOF  1
   INSTANCE: PBOT                                                                            
 LARGEST INCREMENT OF DISP.         3.000E-02   AT NODE          1   DOF  3
   INSTANCE: {assembly node}                                                                 
 LARGEST CORRECTION TO DISP.       -2.480E-05   AT NODE        821   DOF  1
   INSTANCE: PBOT                                                                            
          THE FORCE     EQUILIBRIUM EQUATIONS HAVE CONVERGED

 AVERAGE MOMENT                      0.00       TIME AVG. MOMENT      1.836E-02
                                                (FROM FORCE     FIELD)
 LARGEST RESIDUAL MOMENT           -9.891E-08   AT NODE          1   DOF  5
   INSTANCE:                                                                                 
 LARGEST INCREMENT OF ROTATION     -4.562E-12   AT NODE          1   DOF  5
   INSTANCE: {assembly node}                                                                 
 LARGEST CORRECTION TO ROTATION    -1.460E-11   AT NODE          1   DOF  5
   INSTANCE: {assembly node}                                                                 
          THERE IS ZERO MOMENT    EVERYWHERE

 ITERATION SUMMARY FOR THE INCREMENT:   1 TOTAL ITERATIONS, OF WHICH
   0 ARE SEVERE DISCONTINUITY ITERATIONS AND  1 ARE EQUILIBRIUM ITERATIONS.

 TIME INCREMENT COMPLETED  1.000E-02,  FRACTION OF STEP COMPLETED  5.000E-02
 STEP TIME COMPLETED       5.000E-02,  TOTAL TIME COMPLETED        5.000E-02
  
     ASYNCHRONOUS OUTPUT DATABASE FRAME FLUSH STARTED
  


  INCREMENT    12 STARTS. ATTEMPT NUMBER  1, TIME INCREMENT  1.000E-02

  NUMBER OF EQUATIONS =     63180     NUMBER OF RHS =    1
  NUMBER OF FLOATING PT. OPERATIONS =  5.68E+09

  USING THE DIRECT SOLVER WITH   7 PROCESSORS

     CHECK POINT   START OF SOLVER    

     CHECK POINT  END OF SOLVER       

       ELAPSED USER TIME (SEC)      =   1.2000    
       ELAPSED SYSTEM TIME (SEC)    =  0.10000    
       ELAPSED TOTAL CPU TIME (SEC) =   1.3000    
       ELAPSED WALLCLOCK TIME (SEC) =          0

               CONVERGENCE CHECKS FOR EQUILIBRIUM ITERATION     1


 AVERAGE FORCE                      0.153       TIME AVG. FORCE       5.283E-02
 LARGEST RESIDUAL FORCE             3.032E-04   AT NODE       3091   DOF  1
   INSTANCE: CEINST                                                                          
 LARGEST INCREMENT OF DISP.         3.000E-02   AT NODE          1   DOF  3
   INSTANCE: {assembly node}                                                                 
 LARGEST CORRECTION TO DISP.        6.559E-05   AT NODE       3084   DOF  3
   INSTANCE: CEINST                                                                          
          FORCE     EQUILIBRIUM NOT ACHIEVED WITHIN TOLERANCE.

 AVERAGE MOMENT                      0.00       TIME AVG. MOMENT      2.268E-02
                                                (FROM FORCE     FIELD)
 LARGEST RESIDUAL MOMENT            3.625E-05   AT NODE          1   DOF  5
   INSTANCE:                                                                                 
 LARGEST INCREMENT OF ROTATION      8.985E-13   AT NODE          1   DOF  5
   INSTANCE: {assembly node}                                                                 
 LARGEST CORRECTION TO ROTATION     5.460E-12   AT NODE          1   DOF  5
   INSTANCE: {assembly node}                                                                 
          ALL ROTATION CORRECTIONS ARE ZERO

  NUMBER OF EQUATIONS =     63180     NUMBER OF RHS =    1
  NUMBER OF FLOATING PT. OPERATIONS =  5.68E+09

  USING THE DIRECT SOLVER WITH   7 PROCESSORS

     CHECK POINT   START OF SOLVER    

     CHECK POINT  END OF SOLVER       

       ELAPSED USER TIME (SEC)      =   1.1000    
       ELAPSED SYSTEM TIME (SEC)    =   0.0000    
       ELAPSED TOTAL CPU TIME (SEC) =   1.1000    
       ELAPSED WALLCLOCK TIME (SEC) =          0

               CONVERGENCE CHECKS FOR EQUILIBRIUM ITERATION     2


 AVERAGE FORCE                      0.153       TIME AVG. FORCE       5.283E-02
 LARGEST RESIDUAL FORCE             2.050E-07   AT NODE       1890   DOF  1
   INSTANCE: PBOT                                                                            
 LARGEST INCREMENT OF DISP.         3.000E-02   AT NODE          1   DOF  3
   INSTANCE: {assembly node}                                                                 
 LARGEST CORRECTION TO DISP.        3.301E-08   AT NODE       3091   DOF  3
   INSTANCE: CEINST                                                                          
          THE FORCE     EQUILIBRIUM EQUATIONS HAVE CONVERGED

 AVERAGE MOMENT                      0.00       TIME AVG. MOMENT      2.268E-02
                                                (FROM FORCE     FIELD)
 LARGEST RESIDUAL MOMENT            3.482E-08   AT NODE          2   DOF  5
   INSTANCE:                                                                                 
 LARGEST INCREMENT OF ROTATION      1.326E-12   AT NODE          1   DOF  5
   INSTANCE: {assembly node}                                                                 
 LARGEST CORRECTION TO ROTATION     5.039E-13   AT NODE          2   DOF  5
   INSTANCE: {assembly node}                                                                 
          THERE IS ZERO MOMENT    EVERYWHERE

 ITERATION SUMMARY FOR THE INCREMENT:   2 TOTAL ITERATIONS, OF WHICH
   0 ARE SEVERE DISCONTINUITY ITERATIONS AND  2 ARE EQUILIBRIUM ITERATIONS.

 TIME INCREMENT COMPLETED  1.000E-02,  FRACTION OF STEP COMPLETED  6.000E-02
 STEP TIME COMPLETED       6.000E-02,  TOTAL TIME COMPLETED        6.000E-02
  
     ASYNCHRONOUS OUTPUT DATABASE FRAME FLUSH STARTED
  


  INCREMENT    13 STARTS. ATTEMPT NUMBER  1, TIME INCREMENT  1.000E-02

  NUMBER OF EQUATIONS =     63180     NUMBER OF RHS =    1
  NUMBER OF FLOATING PT. OPERATIONS =  5.68E+09

  USING THE DIRECT SOLVER WITH   7 PROCESSORS

     CHECK POINT   START OF SOLVER    

     CHECK POINT  END OF SOLVER       

       ELAPSED USER TIME (SEC)      =   1.2000    
       ELAPSED SYSTEM TIME (SEC)    =   0.0000    
       ELAPSED TOTAL CPU TIME (SEC) =   1.2000    
       ELAPSED WALLCLOCK TIME (SEC) =          0

               CONVERGENCE CHECKS FOR EQUILIBRIUM ITERATION     1


 AVERAGE FORCE                      0.178       TIME AVG. FORCE       6.246E-02
 LARGEST RESIDUAL FORCE             9.661E-04   AT NODE       3089   DOF  1
   INSTANCE: CEINST                                                                          
 LARGEST INCREMENT OF DISP.         3.000E-02   AT NODE          1   DOF  3
   INSTANCE: {assembly node}                                                                 
 LARGEST CORRECTION TO DISP.       -1.533E-04   AT NODE       2075   DOF  3
   INSTANCE: PBOT                                                                            
          FORCE     EQUILIBRIUM NOT ACHIEVED WITHIN TOLERANCE.

 AVERAGE MOMENT                      0.00       TIME AVG. MOMENT      2.738E-02
                                                (FROM FORCE     FIELD)
 LARGEST RESIDUAL MOMENT           -9.688E-05   AT NODE          2   DOF  5
   INSTANCE:                                                                                 
 LARGEST INCREMENT OF ROTATION      7.201E-13   AT NODE          2   DOF  5
   INSTANCE: {assembly node}                                                                 
 LARGEST CORRECTION TO ROTATION    -6.290E-13   AT NODE          1   DOF  5
   INSTANCE: {assembly node}                                                                 
          ALL ROTATION CORRECTIONS ARE ZERO

  NUMBER OF EQUATIONS =     63180     NUMBER OF RHS =    1
  NUMBER OF FLOATING PT. OPERATIONS =  5.68E+09

  USING THE DIRECT SOLVER WITH   7 PROCESSORS

     CHECK POINT   START OF SOLVER    

     CHECK POINT  END OF SOLVER       

       ELAPSED USER TIME (SEC)      =   1.2000    
       ELAPSED SYSTEM TIME (SEC)    =   0.0000    
       ELAPSED TOTAL CPU TIME (SEC) =   1.2000    
       ELAPSED WALLCLOCK TIME (SEC) =          1

               CONVERGENCE CHECKS FOR EQUILIBRIUM ITERATION     2


 AVERAGE FORCE                      0.178       TIME AVG. FORCE       6.246E-02
 LARGEST RESIDUAL FORCE            -6.280E-07   AT NODE       3086   DOF  1
   INSTANCE: CEINST                                                                          
 LARGEST INCREMENT OF DISP.         3.000E-02   AT NODE          1   DOF  3
   INSTANCE: {assembly node}                                                                 
 LARGEST CORRECTION TO DISP.       -6.783E-08   AT NODE       3086   DOF  3
   INSTANCE: CEINST                                                                          
          THE FORCE     EQUILIBRIUM EQUATIONS HAVE CONVERGED

 AVERAGE MOMENT                      0.00       TIME AVG. MOMENT      2.738E-02
                                                (FROM FORCE     FIELD)
 LARGEST RESIDUAL MOMENT           -7.243E-08   AT NODE          1   DOF  5
   INSTANCE:                                                                                 
 LARGEST INCREMENT OF ROTATION      4.540E-14   AT NODE          1   DOF  5
   INSTANCE: {assembly node}                                                                 
 LARGEST CORRECTION TO ROTATION    -7.225E-13   AT NODE          2   DOF  5
   INSTANCE: {assembly node}                                                                 
          THERE IS ZERO MOMENT    EVERYWHERE

 ITERATION SUMMARY FOR THE INCREMENT:   2 TOTAL ITERATIONS, OF WHICH
   0 ARE SEVERE DISCONTINUITY ITERATIONS AND  2 ARE EQUILIBRIUM ITERATIONS.

 TIME INCREMENT COMPLETED  1.000E-02,  FRACTION OF STEP COMPLETED  7.000E-02
 STEP TIME COMPLETED       7.000E-02,  TOTAL TIME COMPLETED        7.000E-02
  
     ASYNCHRONOUS OUTPUT DATABASE FRAME FLUSH STARTED
  


  INCREMENT    14 STARTS. ATTEMPT NUMBER  1, TIME INCREMENT  1.000E-02

  NUMBER OF EQUATIONS =     63180     NUMBER OF RHS =    1
  NUMBER OF FLOATING PT. OPERATIONS =  5.68E+09

  USING THE DIRECT SOLVER WITH   7 PROCESSORS

     CHECK POINT   START OF SOLVER    

     CHECK POINT  END OF SOLVER       

       ELAPSED USER TIME (SEC)      =   1.1000    
       ELAPSED SYSTEM TIME (SEC)    =  0.10000    
       ELAPSED TOTAL CPU TIME (SEC) =   1.2000    
       ELAPSED WALLCLOCK TIME (SEC) =          1

               CONVERGENCE CHECKS FOR EQUILIBRIUM ITERATION     1


 AVERAGE FORCE                      0.203       TIME AVG. FORCE       7.252E-02
 LARGEST RESIDUAL FORCE             6.372E-07   AT NODE       7251   DOF  1
   INSTANCE: PBOT                                                                            
 LARGEST INCREMENT OF DISP.         3.000E-02   AT NODE          1   DOF  3
   INSTANCE: {assembly node}                                                                 
 LARGEST CORRECTION TO DISP.       -2.452E-05   AT NODE        598   DOF  1
   INSTANCE: PBOT                                                                            
          THE FORCE     EQUILIBRIUM EQUATIONS HAVE CONVERGED

 AVERAGE MOMENT                      0.00       TIME AVG. MOMENT      3.238E-02
                                                (FROM FORCE     FIELD)
 LARGEST RESIDUAL MOMENT            4.661E-08   AT NODE          2   DOF  5
   INSTANCE:                                                                                 
 LARGEST INCREMENT OF ROTATION     -1.568E-13   AT NODE          2   DOF  5
   INSTANCE: {assembly node}                                                                 
 LARGEST CORRECTION TO ROTATION    -1.770E-13   AT NODE          1   DOF  5
   INSTANCE: {assembly node}                                                                 
          THERE IS ZERO MOMENT    EVERYWHERE

 ITERATION SUMMARY FOR THE INCREMENT:   1 TOTAL ITERATIONS, OF WHICH
   0 ARE SEVERE DISCONTINUITY ITERATIONS AND  1 ARE EQUILIBRIUM ITERATIONS.

 TIME INCREMENT COMPLETED  1.000E-02,  FRACTION OF STEP COMPLETED  8.000E-02
 STEP TIME COMPLETED       8.000E-02,  TOTAL TIME COMPLETED        8.000E-02
  
     ASYNCHRONOUS OUTPUT DATABASE FRAME FLUSH STARTED
  


  INCREMENT    15 STARTS. ATTEMPT NUMBER  1, TIME INCREMENT  1.000E-02

  NUMBER OF EQUATIONS =     63180     NUMBER OF RHS =    1
  NUMBER OF FLOATING PT. OPERATIONS =  5.68E+09

  USING THE DIRECT SOLVER WITH   7 PROCESSORS

     CHECK POINT   START OF SOLVER    

     CHECK POINT  END OF SOLVER       

       ELAPSED USER TIME (SEC)      =   1.2000    
       ELAPSED SYSTEM TIME (SEC)    =   0.0000    
       ELAPSED TOTAL CPU TIME (SEC) =   1.2000    
       ELAPSED WALLCLOCK TIME (SEC) =          1

               CONVERGENCE CHECKS FOR EQUILIBRIUM ITERATION     1


 AVERAGE FORCE                      0.229       TIME AVG. FORCE       8.294E-02
 LARGEST RESIDUAL FORCE             6.895E-07   AT NODE       7265   DOF  1
   INSTANCE: PTOP                                                                            
 LARGEST INCREMENT OF DISP.         3.000E-02   AT NODE          1   DOF  3
   INSTANCE: {assembly node}                                                                 
 LARGEST CORRECTION TO DISP.       -2.452E-05   AT NODE       1255   DOF  1
   INSTANCE: PTOP                                                                            
          THE FORCE     EQUILIBRIUM EQUATIONS HAVE CONVERGED

 AVERAGE MOMENT                      0.00       TIME AVG. MOMENT      3.759E-02
                                                (FROM FORCE     FIELD)
 LARGEST RESIDUAL MOMENT            1.191E-07   AT NODE          2   DOF  5
   INSTANCE:                                                                                 
 LARGEST INCREMENT OF ROTATION     -1.822E-13   AT NODE          1   DOF  5
   INSTANCE: {assembly node}                                                                 
 LARGEST CORRECTION TO ROTATION    -5.060E-14   AT NODE          1   DOF  5
   INSTANCE: {assembly node}                                                                 
          THERE IS ZERO MOMENT    EVERYWHERE

 ITERATION SUMMARY FOR THE INCREMENT:   1 TOTAL ITERATIONS, OF WHICH
   0 ARE SEVERE DISCONTINUITY ITERATIONS AND  1 ARE EQUILIBRIUM ITERATIONS.

 TIME INCREMENT COMPLETED  1.000E-02,  FRACTION OF STEP COMPLETED  9.000E-02
 STEP TIME COMPLETED       9.000E-02,  TOTAL TIME COMPLETED        9.000E-02
  
     ASYNCHRONOUS OUTPUT DATABASE FRAME FLUSH STARTED
  


  INCREMENT    16 STARTS. ATTEMPT NUMBER  1, TIME INCREMENT  1.000E-02

  NUMBER OF EQUATIONS =     63180     NUMBER OF RHS =    1
  NUMBER OF FLOATING PT. OPERATIONS =  5.68E+09

  USING THE DIRECT SOLVER WITH   7 PROCESSORS

     CHECK POINT   START OF SOLVER    

     CHECK POINT  END OF SOLVER       

       ELAPSED USER TIME (SEC)      =   1.0000    
       ELAPSED SYSTEM TIME (SEC)    =   0.0000    
       ELAPSED TOTAL CPU TIME (SEC) =   1.0000    
       ELAPSED WALLCLOCK TIME (SEC) =          0

               CONVERGENCE CHECKS FOR EQUILIBRIUM ITERATION     1


 AVERAGE FORCE                      0.254       TIME AVG. FORCE       9.363E-02
 LARGEST RESIDUAL FORCE             7.357E-07   AT NODE       7261   DOF  1
   INSTANCE: PTOP                                                                            
 LARGEST INCREMENT OF DISP.         3.000E-02   AT NODE          1   DOF  3
   INSTANCE: {assembly node}                                                                 
 LARGEST CORRECTION TO DISP.       -2.452E-05   AT NODE        603   DOF  1
   INSTANCE: PTOP                                                                            
          THE FORCE     EQUILIBRIUM EQUATIONS HAVE CONVERGED

 AVERAGE MOMENT                      0.00       TIME AVG. MOMENT      4.299E-02
                                                (FROM FORCE     FIELD)
 LARGEST RESIDUAL MOMENT            8.688E-08   AT NODE          2   DOF  5
   INSTANCE:                                                                                 
 LARGEST INCREMENT OF ROTATION     -2.413E-13   AT NODE          1   DOF  5
   INSTANCE: {assembly node}                                                                 
 LARGEST CORRECTION TO ROTATION    -5.912E-14   AT NODE          1   DOF  5
   INSTANCE: {assembly node}                                                                 
          THERE IS ZERO MOMENT    EVERYWHERE

 ITERATION SUMMARY FOR THE INCREMENT:   1 TOTAL ITERATIONS, OF WHICH
   0 ARE SEVERE DISCONTINUITY ITERATIONS AND  1 ARE EQUILIBRIUM ITERATIONS.

 TIME INCREMENT COMPLETED  1.000E-02,  FRACTION OF STEP COMPLETED  0.100    
 STEP TIME COMPLETED       0.100    ,  TOTAL TIME COMPLETED        0.100    
  
     ASYNCHRONOUS OUTPUT DATABASE FRAME FLUSH STARTED
  


  INCREMENT    17 STARTS. ATTEMPT NUMBER  1, TIME INCREMENT  1.000E-02

  NUMBER OF EQUATIONS =     63180     NUMBER OF RHS =    1
  NUMBER OF FLOATING PT. OPERATIONS =  5.68E+09

  USING THE DIRECT SOLVER WITH   7 PROCESSORS

     CHECK POINT   START OF SOLVER    

     CHECK POINT  END OF SOLVER       

       ELAPSED USER TIME (SEC)      =   1.2000    
       ELAPSED SYSTEM TIME (SEC)    =   0.0000    
       ELAPSED TOTAL CPU TIME (SEC) =   1.2000    
       ELAPSED WALLCLOCK TIME (SEC) =          0

               CONVERGENCE CHECKS FOR EQUILIBRIUM ITERATION     1


 AVERAGE FORCE                      0.279       TIME AVG. FORCE       0.105    
 LARGEST RESIDUAL FORCE             7.837E-07   AT NODE       7265   DOF  1
   INSTANCE: PTOP                                                                            
 LARGEST INCREMENT OF DISP.         3.000E-02   AT NODE        353   DOF  3
   INSTANCE: PTOP                                                                            
 LARGEST CORRECTION TO DISP.       -2.452E-05   AT NODE       1255   DOF  1
   INSTANCE: PTOP                                                                            
          THE FORCE     EQUILIBRIUM EQUATIONS HAVE CONVERGED

 AVERAGE MOMENT                      0.00       TIME AVG. MOMENT      4.853E-02
                                                (FROM FORCE     FIELD)
 LARGEST RESIDUAL MOMENT            8.781E-08   AT NODE          2   DOF  5
   INSTANCE:                                                                                 
 LARGEST INCREMENT OF ROTATION     -2.982E-13   AT NODE          2   DOF  5
   INSTANCE: {assembly node}                                                                 
 LARGEST CORRECTION TO ROTATION    -9.419E-14   AT NODE          2   DOF  5
   INSTANCE: {assembly node}                                                                 
          THERE IS ZERO MOMENT    EVERYWHERE

 ITERATION SUMMARY FOR THE INCREMENT:   1 TOTAL ITERATIONS, OF WHICH
   0 ARE SEVERE DISCONTINUITY ITERATIONS AND  1 ARE EQUILIBRIUM ITERATIONS.

 TIME INCREMENT COMPLETED  1.000E-02,  FRACTION OF STEP COMPLETED  0.110    
 STEP TIME COMPLETED       0.110    ,  TOTAL TIME COMPLETED        0.110    
  
     ASYNCHRONOUS OUTPUT DATABASE FRAME FLUSH STARTED
  


  INCREMENT    18 STARTS. ATTEMPT NUMBER  1, TIME INCREMENT  1.000E-02

  NUMBER OF EQUATIONS =     63180     NUMBER OF RHS =    1
  NUMBER OF FLOATING PT. OPERATIONS =  5.68E+09

  USING THE DIRECT SOLVER WITH   7 PROCESSORS

     CHECK POINT   START OF SOLVER    

     CHECK POINT  END OF SOLVER       

       ELAPSED USER TIME (SEC)      =   1.2000    
       ELAPSED SYSTEM TIME (SEC)    =  0.10000    
       ELAPSED TOTAL CPU TIME (SEC) =   1.3000    
       ELAPSED WALLCLOCK TIME (SEC) =          0

               CONVERGENCE CHECKS FOR EQUILIBRIUM ITERATION     1


 AVERAGE FORCE                      0.305       TIME AVG. FORCE       0.116    
 LARGEST RESIDUAL FORCE             8.317E-07   AT NODE       7265   DOF  1
   INSTANCE: PTOP                                                                            
 LARGEST INCREMENT OF DISP.         3.000E-02   AT NODE        353   DOF  3
   INSTANCE: PTOP                                                                            
 LARGEST CORRECTION TO DISP.       -2.452E-05   AT NODE       1255   DOF  1
   INSTANCE: PTOP                                                                            
          THE FORCE     EQUILIBRIUM EQUATIONS HAVE CONVERGED

 AVERAGE MOMENT                      0.00       TIME AVG. MOMENT      5.420E-02
                                                (FROM FORCE     FIELD)
 LARGEST RESIDUAL MOMENT            8.875E-08   AT NODE          2   DOF  5
   INSTANCE:                                                                                 
 LARGEST INCREMENT OF ROTATION     -2.412E-13   AT NODE          2   DOF  5
   INSTANCE: {assembly node}                                                                 
 LARGEST CORRECTION TO ROTATION     5.697E-14   AT NODE          2   DOF  5
   INSTANCE: {assembly node}                                                                 
          THERE IS ZERO MOMENT    EVERYWHERE

 ITERATION SUMMARY FOR THE INCREMENT:   1 TOTAL ITERATIONS, OF WHICH
   0 ARE SEVERE DISCONTINUITY ITERATIONS AND  1 ARE EQUILIBRIUM ITERATIONS.

 TIME INCREMENT COMPLETED  1.000E-02,  FRACTION OF STEP COMPLETED  0.120    
 STEP TIME COMPLETED       0.120    ,  TOTAL TIME COMPLETED        0.120    
  
     ASYNCHRONOUS OUTPUT DATABASE FRAME FLUSH STARTED
  


  INCREMENT    19 STARTS. ATTEMPT NUMBER  1, TIME INCREMENT  1.000E-02

  NUMBER OF EQUATIONS =     63180     NUMBER OF RHS =    1
  NUMBER OF FLOATING PT. OPERATIONS =  5.68E+09

  USING THE DIRECT SOLVER WITH   7 PROCESSORS

     CHECK POINT   START OF SOLVER    

     CHECK POINT  END OF SOLVER       

       ELAPSED USER TIME (SEC)      =   1.0000    
       ELAPSED SYSTEM TIME (SEC)    =  0.10000    
       ELAPSED TOTAL CPU TIME (SEC) =   1.1000    
       ELAPSED WALLCLOCK TIME (SEC) =          0

               CONVERGENCE CHECKS FOR EQUILIBRIUM ITERATION     1


 AVERAGE FORCE                      0.330       TIME AVG. FORCE       0.127    
 LARGEST RESIDUAL FORCE             8.797E-07   AT NODE       7261   DOF  1
   INSTANCE: PTOP                                                                            
 LARGEST INCREMENT OF DISP.         3.000E-02   AT NODE        353   DOF  3
   INSTANCE: PTOP                                                                            
 LARGEST CORRECTION TO DISP.       -2.452E-05   AT NODE        603   DOF  1
   INSTANCE: PTOP                                                                            
          THE FORCE     EQUILIBRIUM EQUATIONS HAVE CONVERGED

 AVERAGE MOMENT                      0.00       TIME AVG. MOMENT      5.997E-02
                                                (FROM FORCE     FIELD)
 LARGEST RESIDUAL MOMENT            8.970E-08   AT NODE          2   DOF  5
   INSTANCE:                                                                                 
 LARGEST INCREMENT OF ROTATION     -2.108E-13   AT NODE          1   DOF  5
   INSTANCE: {assembly node}                                                                 
 LARGEST CORRECTION TO ROTATION     4.598E-14   AT NODE          2   DOF  5
   INSTANCE: {assembly node}                                                                 
          THERE IS ZERO MOMENT    EVERYWHERE

 ITERATION SUMMARY FOR THE INCREMENT:   1 TOTAL ITERATIONS, OF WHICH
   0 ARE SEVERE DISCONTINUITY ITERATIONS AND  1 ARE EQUILIBRIUM ITERATIONS.

 TIME INCREMENT COMPLETED  1.000E-02,  FRACTION OF STEP COMPLETED  0.130    
 STEP TIME COMPLETED       0.130    ,  TOTAL TIME COMPLETED        0.130    
  
     ASYNCHRONOUS OUTPUT DATABASE FRAME FLUSH STARTED
  


  INCREMENT    20 STARTS. ATTEMPT NUMBER  1, TIME INCREMENT  1.000E-02

  NUMBER OF EQUATIONS =     63180     NUMBER OF RHS =    1
  NUMBER OF FLOATING PT. OPERATIONS =  5.68E+09

  USING THE DIRECT SOLVER WITH   7 PROCESSORS

     CHECK POINT   START OF SOLVER    

     CHECK POINT  END OF SOLVER       

       ELAPSED USER TIME (SEC)      =   1.2000    
       ELAPSED SYSTEM TIME (SEC)    =   0.0000    
       ELAPSED TOTAL CPU TIME (SEC) =   1.2000    
       ELAPSED WALLCLOCK TIME (SEC) =          0

               CONVERGENCE CHECKS FOR EQUILIBRIUM ITERATION     1


 AVERAGE FORCE                      0.356       TIME AVG. FORCE       0.138    
 LARGEST RESIDUAL FORCE             9.276E-07   AT NODE       7265   DOF  1
   INSTANCE: PTOP                                                                            
 LARGEST INCREMENT OF DISP.         3.000E-02   AT NODE        353   DOF  3
   INSTANCE: PTOP                                                                            
 LARGEST CORRECTION TO DISP.       -2.452E-05   AT NODE       3890   DOF  1
   INSTANCE: PTOP                                                                            
          THE FORCE     EQUILIBRIUM EQUATIONS HAVE CONVERGED

 AVERAGE MOMENT                      0.00       TIME AVG. MOMENT      6.582E-02
                                                (FROM FORCE     FIELD)
 LARGEST RESIDUAL MOMENT            9.068E-08   AT NODE          2   DOF  5
   INSTANCE:                                                                                 
 LARGEST INCREMENT OF ROTATION     -1.617E-13   AT NODE          2   DOF  5
   INSTANCE: {assembly node}                                                                 
 LARGEST CORRECTION TO ROTATION     6.439E-14   AT NODE          1   DOF  5
   INSTANCE: {assembly node}                                                                 
          THERE IS ZERO MOMENT    EVERYWHERE

 ITERATION SUMMARY FOR THE INCREMENT:   1 TOTAL ITERATIONS, OF WHICH
   0 ARE SEVERE DISCONTINUITY ITERATIONS AND  1 ARE EQUILIBRIUM ITERATIONS.

 TIME INCREMENT COMPLETED  1.000E-02,  FRACTION OF STEP COMPLETED  0.140    
 STEP TIME COMPLETED       0.140    ,  TOTAL TIME COMPLETED        0.140    
  
     ASYNCHRONOUS OUTPUT DATABASE FRAME FLUSH STARTED
  


  INCREMENT    21 STARTS. ATTEMPT NUMBER  1, TIME INCREMENT  1.000E-02

  NUMBER OF EQUATIONS =     63180     NUMBER OF RHS =    1
  NUMBER OF FLOATING PT. OPERATIONS =  5.68E+09

  USING THE DIRECT SOLVER WITH   7 PROCESSORS

     CHECK POINT   START OF SOLVER    

     CHECK POINT  END OF SOLVER       

       ELAPSED USER TIME (SEC)      =   1.1000    
       ELAPSED SYSTEM TIME (SEC)    =  0.10000    
       ELAPSED TOTAL CPU TIME (SEC) =   1.2000    
       ELAPSED WALLCLOCK TIME (SEC) =          0

               CONVERGENCE CHECKS FOR EQUILIBRIUM ITERATION     1


 AVERAGE FORCE                      0.381       TIME AVG. FORCE       0.150    
 LARGEST RESIDUAL FORCE             9.754E-07   AT NODE       7265   DOF  1
   INSTANCE: PTOP                                                                            
 LARGEST INCREMENT OF DISP.         3.001E-02   AT NODE        353   DOF  3
   INSTANCE: PTOP                                                                            
 LARGEST CORRECTION TO DISP.       -2.452E-05   AT NODE       3886   DOF  1
   INSTANCE: PTOP                                                                            
          THE FORCE     EQUILIBRIUM EQUATIONS HAVE CONVERGED

 AVERAGE MOMENT                      0.00       TIME AVG. MOMENT      7.176E-02
                                                (FROM FORCE     FIELD)
 LARGEST RESIDUAL MOMENT            9.167E-08   AT NODE          2   DOF  5
   INSTANCE:                                                                                 
 LARGEST INCREMENT OF ROTATION     -1.464E-13   AT NODE          1   DOF  5
   INSTANCE: {assembly node}                                                                 
 LARGEST CORRECTION TO ROTATION     6.171E-14   AT NODE          2   DOF  5
   INSTANCE: {assembly node}                                                                 
          THERE IS ZERO MOMENT    EVERYWHERE

 ITERATION SUMMARY FOR THE INCREMENT:   1 TOTAL ITERATIONS, OF WHICH
   0 ARE SEVERE DISCONTINUITY ITERATIONS AND  1 ARE EQUILIBRIUM ITERATIONS.

 TIME INCREMENT COMPLETED  1.000E-02,  FRACTION OF STEP COMPLETED  0.150    
 STEP TIME COMPLETED       0.150    ,  TOTAL TIME COMPLETED        0.150    
  
     ASYNCHRONOUS OUTPUT DATABASE FRAME FLUSH STARTED
  


  INCREMENT    22 STARTS. ATTEMPT NUMBER  1, TIME INCREMENT  1.000E-02

  NUMBER OF EQUATIONS =     63180     NUMBER OF RHS =    1
  NUMBER OF FLOATING PT. OPERATIONS =  5.68E+09

  USING THE DIRECT SOLVER WITH   7 PROCESSORS

     CHECK POINT   START OF SOLVER    

     CHECK POINT  END OF SOLVER       

       ELAPSED USER TIME (SEC)      =   1.3000    
       ELAPSED SYSTEM TIME (SEC)    =  0.10000    
       ELAPSED TOTAL CPU TIME (SEC) =   1.4000    
       ELAPSED WALLCLOCK TIME (SEC) =          0

               CONVERGENCE CHECKS FOR EQUILIBRIUM ITERATION     1


 AVERAGE FORCE                      0.407       TIME AVG. FORCE       0.162    
 LARGEST RESIDUAL FORCE             3.099E-02   AT NODE       3072   DOF  3
   INSTANCE: CEINST                                                                          
 LARGEST INCREMENT OF DISP.         3.001E-02   AT NODE        353   DOF  3
   INSTANCE: PTOP                                                                            
 LARGEST CORRECTION TO DISP.       -1.207E-04   AT NODE       3077   DOF  3
   INSTANCE: CEINST                                                                          
          FORCE     EQUILIBRIUM NOT ACHIEVED WITHIN TOLERANCE.

 AVERAGE MOMENT                      0.00       TIME AVG. MOMENT      7.775E-02
                                                (FROM FORCE     FIELD)
 LARGEST RESIDUAL MOMENT           -5.197E-05   AT NODE          2   DOF  5
   INSTANCE:                                                                                 
 LARGEST INCREMENT OF ROTATION     -2.781E-13   AT NODE          2   DOF  5
   INSTANCE: {assembly node}                                                                 
 LARGEST CORRECTION TO ROTATION    -1.781E-13   AT NODE          2   DOF  5
   INSTANCE: {assembly node}                                                                 
          ALL ROTATION CORRECTIONS ARE ZERO

  NUMBER OF EQUATIONS =     63180     NUMBER OF RHS =    1
  NUMBER OF FLOATING PT. OPERATIONS =  5.68E+09

  USING THE DIRECT SOLVER WITH   7 PROCESSORS

     CHECK POINT   START OF SOLVER    

     CHECK POINT  END OF SOLVER       

       ELAPSED USER TIME (SEC)      =   1.1000    
       ELAPSED SYSTEM TIME (SEC)    =   0.0000    
       ELAPSED TOTAL CPU TIME (SEC) =   1.1000    
       ELAPSED WALLCLOCK TIME (SEC) =          0

               CONVERGENCE CHECKS FOR EQUILIBRIUM ITERATION     2


 AVERAGE FORCE                      0.407       TIME AVG. FORCE       0.162    
 LARGEST RESIDUAL FORCE            -4.002E-05   AT NODE       3082   DOF  1
   INSTANCE: CEINST                                                                          
 LARGEST INCREMENT OF DISP.         3.001E-02   AT NODE        353   DOF  3
   INSTANCE: PTOP                                                                            
 LARGEST CORRECTION TO DISP.        1.093E-05   AT NODE       3068   DOF  3
   INSTANCE: CEINST                                                                          
          THE FORCE     EQUILIBRIUM EQUATIONS HAVE CONVERGED

 AVERAGE MOMENT                      0.00       TIME AVG. MOMENT      7.775E-02
                                                (FROM FORCE     FIELD)
 LARGEST RESIDUAL MOMENT            3.928E-06   AT NODE          1   DOF  5
   INSTANCE:                                                                                 
 LARGEST INCREMENT OF ROTATION      1.435E-12   AT NODE          1   DOF  5
   INSTANCE: {assembly node}                                                                 
 LARGEST CORRECTION TO ROTATION     1.712E-12   AT NODE          2   DOF  5
   INSTANCE: {assembly node}                                                                 
          ALL ROTATION CORRECTIONS ARE ZERO

 ITERATION SUMMARY FOR THE INCREMENT:   2 TOTAL ITERATIONS, OF WHICH
   0 ARE SEVERE DISCONTINUITY ITERATIONS AND  2 ARE EQUILIBRIUM ITERATIONS.

 TIME INCREMENT COMPLETED  1.000E-02,  FRACTION OF STEP COMPLETED  0.160    
 STEP TIME COMPLETED       0.160    ,  TOTAL TIME COMPLETED        0.160    
  
     ASYNCHRONOUS OUTPUT DATABASE FRAME FLUSH STARTED
  


  INCREMENT    23 STARTS. ATTEMPT NUMBER  1, TIME INCREMENT  1.000E-02

  NUMBER OF EQUATIONS =     63180     NUMBER OF RHS =    1
  NUMBER OF FLOATING PT. OPERATIONS =  5.68E+09

  USING THE DIRECT SOLVER WITH   7 PROCESSORS

     CHECK POINT   START OF SOLVER    

     CHECK POINT  END OF SOLVER       

       ELAPSED USER TIME (SEC)      =   1.2000    
       ELAPSED SYSTEM TIME (SEC)    =   0.0000    
       ELAPSED TOTAL CPU TIME (SEC) =   1.2000    
       ELAPSED WALLCLOCK TIME (SEC) =          0

               CONVERGENCE CHECKS FOR EQUILIBRIUM ITERATION     1


 AVERAGE FORCE                      0.432       TIME AVG. FORCE       0.173    
 LARGEST RESIDUAL FORCE             1.187E-03   AT NODE       3079   DOF  1
   INSTANCE: CEINST                                                                          
 LARGEST INCREMENT OF DISP.         3.001E-02   AT NODE        353   DOF  3
   INSTANCE: PTOP                                                                            
 LARGEST CORRECTION TO DISP.        1.635E-04   AT NODE       3068   DOF  3
   INSTANCE: CEINST                                                                          
          FORCE     EQUILIBRIUM NOT ACHIEVED WITHIN TOLERANCE.

 AVERAGE MOMENT                      0.00       TIME AVG. MOMENT      8.380E-02
                                                (FROM FORCE     FIELD)
 LARGEST RESIDUAL MOMENT           -8.262E-05   AT NODE          2   DOF  5
   INSTANCE:                                                                                 
 LARGEST INCREMENT OF ROTATION      5.414E-12   AT NODE          1   DOF  5
   INSTANCE: {assembly node}                                                                 
 LARGEST CORRECTION TO ROTATION     3.979E-12   AT NODE          1   DOF  5
   INSTANCE: {assembly node}                                                                 
          ALL ROTATION CORRECTIONS ARE ZERO

  NUMBER OF EQUATIONS =     63180     NUMBER OF RHS =    1
  NUMBER OF FLOATING PT. OPERATIONS =  5.68E+09

  USING THE DIRECT SOLVER WITH   7 PROCESSORS

     CHECK POINT   START OF SOLVER    

     CHECK POINT  END OF SOLVER       

       ELAPSED USER TIME (SEC)      =   1.2000    
       ELAPSED SYSTEM TIME (SEC)    =   0.0000    
       ELAPSED TOTAL CPU TIME (SEC) =   1.2000    
       ELAPSED WALLCLOCK TIME (SEC) =          0

               CONVERGENCE CHECKS FOR EQUILIBRIUM ITERATION     2


 AVERAGE FORCE                      0.432       TIME AVG. FORCE       0.173    
 LARGEST RESIDUAL FORCE            -1.135E-06   AT NODE       3075   DOF  1
   INSTANCE: CEINST                                                                          
 LARGEST INCREMENT OF DISP.         3.001E-02   AT NODE        353   DOF  3
   INSTANCE: PTOP                                                                            
 LARGEST CORRECTION TO DISP.       -9.740E-08   AT NODE       1366   DOF  3
   INSTANCE: PTOP                                                                            
          THE FORCE     EQUILIBRIUM EQUATIONS HAVE CONVERGED

 AVERAGE MOMENT                      0.00       TIME AVG. MOMENT      8.380E-02
                                                (FROM FORCE     FIELD)
 LARGEST RESIDUAL MOMENT           -1.339E-07   AT NODE          1   DOF  5
   INSTANCE:                                                                                 
 LARGEST INCREMENT OF ROTATION      7.863E-14   AT NODE          1   DOF  5
   INSTANCE: {assembly node}                                                                 
 LARGEST CORRECTION TO ROTATION    -5.339E-12   AT NODE          2   DOF  5
   INSTANCE: {assembly node}                                                                 
          THERE IS ZERO MOMENT    EVERYWHERE

 ITERATION SUMMARY FOR THE INCREMENT:   2 TOTAL ITERATIONS, OF WHICH
   0 ARE SEVERE DISCONTINUITY ITERATIONS AND  2 ARE EQUILIBRIUM ITERATIONS.

 TIME INCREMENT COMPLETED  1.000E-02,  FRACTION OF STEP COMPLETED  0.170    
 STEP TIME COMPLETED       0.170    ,  TOTAL TIME COMPLETED        0.170    
  
     ASYNCHRONOUS OUTPUT DATABASE FRAME FLUSH STARTED
  


  INCREMENT    24 STARTS. ATTEMPT NUMBER  1, TIME INCREMENT  1.000E-02

  NUMBER OF EQUATIONS =     63180     NUMBER OF RHS =    1
  NUMBER OF FLOATING PT. OPERATIONS =  5.68E+09

  USING THE DIRECT SOLVER WITH   7 PROCESSORS

     CHECK POINT   START OF SOLVER    

     CHECK POINT  END OF SOLVER       

       ELAPSED USER TIME (SEC)      =   1.1000    
       ELAPSED SYSTEM TIME (SEC)    =  0.10000    
       ELAPSED TOTAL CPU TIME (SEC) =   1.2000    
       ELAPSED WALLCLOCK TIME (SEC) =          0

               CONVERGENCE CHECKS FOR EQUILIBRIUM ITERATION     1


 AVERAGE FORCE                      0.457       TIME AVG. FORCE       0.185    
 LARGEST RESIDUAL FORCE             1.145E-06   AT NODE       7276   DOF  1
   INSTANCE: PTOP                                                                            
 LARGEST INCREMENT OF DISP.        -3.001E-02   AT NODE        343   DOF  3
   INSTANCE: PBOT                                                                            
 LARGEST CORRECTION TO DISP.       -2.422E-05   AT NODE        604   DOF  1
   INSTANCE: PTOP                                                                            
          THE FORCE     EQUILIBRIUM EQUATIONS HAVE CONVERGED

 AVERAGE MOMENT                      0.00       TIME AVG. MOMENT      8.989E-02
                                                (FROM FORCE     FIELD)
 LARGEST RESIDUAL MOMENT            1.578E-09   AT NODE          2   DOF  5
   INSTANCE:                                                                                 
 LARGEST INCREMENT OF ROTATION      1.329E-11   AT NODE          2   DOF  5
   INSTANCE: {assembly node}                                                                 
 LARGEST CORRECTION TO ROTATION     1.323E-11   AT NODE          2   DOF  5
   INSTANCE: {assembly node}                                                                 
          THERE IS ZERO MOMENT    EVERYWHERE

 ITERATION SUMMARY FOR THE INCREMENT:   1 TOTAL ITERATIONS, OF WHICH
   0 ARE SEVERE DISCONTINUITY ITERATIONS AND  1 ARE EQUILIBRIUM ITERATIONS.

 TIME INCREMENT COMPLETED  1.000E-02,  FRACTION OF STEP COMPLETED  0.180    
 STEP TIME COMPLETED       0.180    ,  TOTAL TIME COMPLETED        0.180    
  
     ASYNCHRONOUS OUTPUT DATABASE FRAME FLUSH STARTED
  


  INCREMENT    25 STARTS. ATTEMPT NUMBER  1, TIME INCREMENT  1.000E-02

  NUMBER OF EQUATIONS =     63180     NUMBER OF RHS =    1
  NUMBER OF FLOATING PT. OPERATIONS =  5.68E+09

  USING THE DIRECT SOLVER WITH   7 PROCESSORS

     CHECK POINT   START OF SOLVER    

     CHECK POINT  END OF SOLVER       

       ELAPSED USER TIME (SEC)      =   1.1000    
       ELAPSED SYSTEM TIME (SEC)    =  0.10000    
       ELAPSED TOTAL CPU TIME (SEC) =   1.2000    
       ELAPSED WALLCLOCK TIME (SEC) =          0
 

 ***WARNING: THE SYSTEM MATRIX HAS 1 NEGATIVE EIGENVALUES.

     NEGATIVE EIGENVALUES MEAN THAT THE SYSTEM MATRIX IS NOT 
     POSITIVE DEFINITE:
     FOR EXAMPLE, A BIFURCATION (BUCKLING) LOAD MAY HAVE BEEN EXCEEDED.

               CONVERGENCE CHECKS FOR EQUILIBRIUM ITERATION     1


 AVERAGE FORCE                      0.482       TIME AVG. FORCE       0.197    
 LARGEST RESIDUAL FORCE             1.193E-06   AT NODE       7270   DOF  1
   INSTANCE: PBOT                                                                            
 LARGEST INCREMENT OF DISP.         3.001E-02   AT NODE        353   DOF  3
   INSTANCE: PTOP                                                                            
 LARGEST CORRECTION TO DISP.       -2.422E-05   AT NODE        823   DOF  1
   INSTANCE: PBOT                                                                            
          THE FORCE     EQUILIBRIUM EQUATIONS HAVE CONVERGED

 AVERAGE MOMENT                      0.00       TIME AVG. MOMENT      9.601E-02
                                                (FROM FORCE     FIELD)
 LARGEST RESIDUAL MOMENT           -1.781E-07   AT NODE          1   DOF  5
   INSTANCE:                                                                                 
 LARGEST INCREMENT OF ROTATION     -4.089E-12   AT NODE          2   DOF  5
   INSTANCE: {assembly node}                                                                 
 LARGEST CORRECTION TO ROTATION    -1.738E-11   AT NODE          2   DOF  5
   INSTANCE: {assembly node}                                                                 
          THERE IS ZERO MOMENT    EVERYWHERE

 ITERATION SUMMARY FOR THE INCREMENT:   1 TOTAL ITERATIONS, OF WHICH
   0 ARE SEVERE DISCONTINUITY ITERATIONS AND  1 ARE EQUILIBRIUM ITERATIONS.

 TIME INCREMENT COMPLETED  1.000E-02,  FRACTION OF STEP COMPLETED  0.190    
 STEP TIME COMPLETED       0.190    ,  TOTAL TIME COMPLETED        0.190    
  
     ASYNCHRONOUS OUTPUT DATABASE FRAME FLUSH STARTED
  


  INCREMENT    26 STARTS. ATTEMPT NUMBER  1, TIME INCREMENT  1.000E-02

  NUMBER OF EQUATIONS =     63180     NUMBER OF RHS =    1
  NUMBER OF FLOATING PT. OPERATIONS =  5.68E+09

  USING THE DIRECT SOLVER WITH   7 PROCESSORS

     CHECK POINT   START OF SOLVER    

     CHECK POINT  END OF SOLVER       

       ELAPSED USER TIME (SEC)      =   1.3000    
       ELAPSED SYSTEM TIME (SEC)    =   0.0000    
       ELAPSED TOTAL CPU TIME (SEC) =   1.3000    
       ELAPSED WALLCLOCK TIME (SEC) =          0
 

 ***WARNING: THE SYSTEM MATRIX HAS 1 NEGATIVE EIGENVALUES.
             EXPLANATIONS ARE SUGGESTED AFTER THE FIRST OCCURRENCE OF THIS MESSAGE.

               CONVERGENCE CHECKS FOR EQUILIBRIUM ITERATION     1


 AVERAGE FORCE                      0.507       TIME AVG. FORCE       0.209    
 LARGEST RESIDUAL FORCE             1.236E-06   AT NODE       7280   DOF  1
   INSTANCE: PTOP                                                                            
 LARGEST INCREMENT OF DISP.        -3.001E-02   AT NODE        343   DOF  3
   INSTANCE: PBOT                                                                            
 LARGEST CORRECTION TO DISP.       -2.422E-05   AT NODE        604   DOF  1
   INSTANCE: PTOP                                                                            
          THE FORCE     EQUILIBRIUM EQUATIONS HAVE CONVERGED

 AVERAGE MOMENT                      0.00       TIME AVG. MOMENT      0.102    
                                                (FROM FORCE     FIELD)
 LARGEST RESIDUAL MOMENT            9.392E-08   AT NODE          2   DOF  5
   INSTANCE:                                                                                 
 LARGEST INCREMENT OF ROTATION      3.730E-11   AT NODE          2   DOF  5
   INSTANCE: {assembly node}                                                                 
 LARGEST CORRECTION TO ROTATION     4.138E-11   AT NODE          2   DOF  5
   INSTANCE: {assembly node}                                                                 
          THERE IS ZERO MOMENT    EVERYWHERE

 ITERATION SUMMARY FOR THE INCREMENT:   1 TOTAL ITERATIONS, OF WHICH
   0 ARE SEVERE DISCONTINUITY ITERATIONS AND  1 ARE EQUILIBRIUM ITERATIONS.

 TIME INCREMENT COMPLETED  1.000E-02,  FRACTION OF STEP COMPLETED  0.200    
 STEP TIME COMPLETED       0.200    ,  TOTAL TIME COMPLETED        0.200    
  
     ASYNCHRONOUS OUTPUT DATABASE FRAME FLUSH STARTED
  


  INCREMENT    27 STARTS. ATTEMPT NUMBER  1, TIME INCREMENT  1.000E-02

  NUMBER OF EQUATIONS =     63180     NUMBER OF RHS =    1
  NUMBER OF FLOATING PT. OPERATIONS =  5.68E+09

  USING THE DIRECT SOLVER WITH   7 PROCESSORS

     CHECK POINT   START OF SOLVER    

     CHECK POINT  END OF SOLVER       

       ELAPSED USER TIME (SEC)      =   1.2000    
       ELAPSED SYSTEM TIME (SEC)    =  0.10000    
       ELAPSED TOTAL CPU TIME (SEC) =   1.3000    
       ELAPSED WALLCLOCK TIME (SEC) =          0
 

 ***WARNING: THE SYSTEM MATRIX HAS 1 NEGATIVE EIGENVALUES.
             EXPLANATIONS ARE SUGGESTED AFTER THE FIRST OCCURRENCE OF THIS MESSAGE.

               CONVERGENCE CHECKS FOR EQUILIBRIUM ITERATION     1


 AVERAGE FORCE                      0.532       TIME AVG. FORCE       0.221    
 LARGEST RESIDUAL FORCE             5.114E-06   AT NODE       3088   DOF  3
   INSTANCE: CEINST                                                                          
 LARGEST INCREMENT OF DISP.        -3.001E-02   AT NODE        343   DOF  3
   INSTANCE: PBOT                                                                            
 LARGEST CORRECTION TO DISP.       -2.423E-05   AT NODE        604   DOF  1
   INSTANCE: PTOP                                                                            
          THE FORCE     EQUILIBRIUM EQUATIONS HAVE CONVERGED

 AVERAGE MOMENT                      0.00       TIME AVG. MOMENT      0.108    
                                                (FROM FORCE     FIELD)
 LARGEST RESIDUAL MOMENT            9.554E-08   AT NODE          2   DOF  5
   INSTANCE:                                                                                 
 LARGEST INCREMENT OF ROTATION      4.296E-10   AT NODE          2   DOF  5
[...]
 LARGEST RESIDUAL FORCE            -1.314E-03   AT NODE       2580   DOF  1
   INSTANCE: CEINST                                                                          
 LARGEST INCREMENT OF DISP.        -1.126E-02   AT NODE          5   DOF  3
   INSTANCE: PBOT                                                                            
 LARGEST CORRECTION TO DISP.        1.540E-04   AT NODE       1280   DOF  3
   INSTANCE: PTOP                                                                            
 ESTIMATE OF DISP.    CORRECTION    1.877E-06
 FORCE     EQUILIB. ACCEPTED BASED ON SMALL RESIDUAL AND ESTIMATED CORRECTION

 AVERAGE MOMENT                      0.00       TIME AVG. MOMENT      0.580    
                                                (FROM FORCE     FIELD)
 LARGEST RESIDUAL MOMENT           -5.627E-06   AT NODE          1   DOF  5
   INSTANCE:                                                                                 
 LARGEST INCREMENT OF ROTATION      1.109E-12   AT NODE          2   DOF  5
   INSTANCE: {assembly node}                                                                 
 LARGEST CORRECTION TO ROTATION     5.410E-11   AT NODE          1   DOF  5
   INSTANCE: {assembly node}                                                                 
          THERE IS ZERO MOMENT    EVERYWHERE
          TIME INCREMENT MAY NOW INCREASE TO    3.750E-03

 ITERATION SUMMARY FOR THE INCREMENT:   2 TOTAL ITERATIONS, OF WHICH
   0 ARE SEVERE DISCONTINUITY ITERATIONS AND  2 ARE EQUILIBRIUM ITERATIONS.

 TIME INCREMENT COMPLETED  3.750E-03,  FRACTION OF STEP COMPLETED  0.986    
 STEP TIME COMPLETED       0.986    ,  TOTAL TIME COMPLETED        0.986    


  INCREMENT   144 STARTS. ATTEMPT NUMBER  1, TIME INCREMENT  3.750E-03

  NUMBER OF EQUATIONS =     63180     NUMBER OF RHS =    1
  NUMBER OF FLOATING PT. OPERATIONS =  5.42E+09

  USING THE DIRECT SOLVER WITH   7 PROCESSORS

     CHECK POINT   START OF SOLVER    

     CHECK POINT  END OF SOLVER       

       ELAPSED USER TIME (SEC)      =   1.2000    
       ELAPSED SYSTEM TIME (SEC)    =   0.0000    
       ELAPSED TOTAL CPU TIME (SEC) =   1.2000    
       ELAPSED WALLCLOCK TIME (SEC) =          1
 

 ***WARNING: THE SYSTEM MATRIX HAS 48 NEGATIVE EIGENVALUES.
             EXPLANATIONS ARE SUGGESTED AFTER THE FIRST OCCURRENCE OF THIS MESSAGE.

               CONVERGENCE CHECKS FOR EQUILIBRIUM ITERATION     1


 AVERAGE FORCE                       1.58       TIME AVG. FORCE        1.12    
 LARGEST RESIDUAL FORCE             -414.       AT NODE       2571   DOF  3
   INSTANCE: CEINST                                                                          
 LARGEST INCREMENT OF DISP.        -1.128E-02   AT NODE        343   DOF  3
   INSTANCE: PBOT                                                                            
 LARGEST CORRECTION TO DISP.       -9.021E-03   AT NODE       1280   DOF  3
   INSTANCE: PTOP                                                                            
          FORCE     EQUILIBRIUM NOT ACHIEVED WITHIN TOLERANCE.

 AVERAGE MOMENT                      0.00       TIME AVG. MOMENT      0.581    
                                                (FROM FORCE     FIELD)
 LARGEST RESIDUAL MOMENT            2.095E-02   AT NODE          2   DOF  5
   INSTANCE:                                                                                 
 LARGEST INCREMENT OF ROTATION      2.540E-12   AT NODE          1   DOF  5
   INSTANCE: {assembly node}                                                                 
 LARGEST CORRECTION TO ROTATION     1.470E-12   AT NODE          1   DOF  5
   INSTANCE: {assembly node}                                                                 
          ALL ROTATION CORRECTIONS ARE ZERO
          THE MOMENT    IS ZERO EVERYWHERE BUT THE MOMENT    RESIDUAL OR
          THE ROTATION CORRECTION IS NON-ZERO

  NUMBER OF EQUATIONS =     63180     NUMBER OF RHS =    1
  NUMBER OF FLOATING PT. OPERATIONS =  5.42E+09

  USING THE DIRECT SOLVER WITH   7 PROCESSORS

     CHECK POINT   START OF SOLVER    

     CHECK POINT  END OF SOLVER       

       ELAPSED USER TIME (SEC)      =   1.0000    
       ELAPSED SYSTEM TIME (SEC)    =   0.0000    
       ELAPSED TOTAL CPU TIME (SEC) =   1.0000    
       ELAPSED WALLCLOCK TIME (SEC) =          0

               CONVERGENCE CHECKS FOR EQUILIBRIUM ITERATION     2


 AVERAGE FORCE                       1.55       TIME AVG. FORCE        1.12    
 LARGEST RESIDUAL FORCE             1.757E-02   AT NODE       2594   DOF  3
   INSTANCE: CEINST                                                                          
 LARGEST INCREMENT OF DISP.         1.127E-02   AT NODE        353   DOF  3
   INSTANCE: PTOP                                                                            
 LARGEST CORRECTION TO DISP.       -4.427E-03   AT NODE       1280   DOF  3
   INSTANCE: PBOT                                                                            
          FORCE     EQUILIBRIUM NOT ACHIEVED WITHIN TOLERANCE.

 AVERAGE MOMENT                      0.00       TIME AVG. MOMENT      0.581    
                                                (FROM FORCE     FIELD)
 LARGEST RESIDUAL MOMENT            4.299E-03   AT NODE          2   DOF  5
   INSTANCE:                                                                                 
 LARGEST INCREMENT OF ROTATION     -1.147E-11   AT NODE          2   DOF  5
   INSTANCE: {assembly node}                                                                 
 LARGEST CORRECTION TO ROTATION    -1.396E-11   AT NODE          1   DOF  5
   INSTANCE: {assembly node}                                                                 
          ALL ROTATION CORRECTIONS ARE ZERO
          THE MOMENT    IS ZERO EVERYWHERE BUT THE MOMENT    RESIDUAL OR
          THE ROTATION CORRECTION IS NON-ZERO

  NUMBER OF EQUATIONS =     63180     NUMBER OF RHS =    1
  NUMBER OF FLOATING PT. OPERATIONS =  5.42E+09

  USING THE DIRECT SOLVER WITH   7 PROCESSORS

     CHECK POINT   START OF SOLVER    

     CHECK POINT  END OF SOLVER       

       ELAPSED USER TIME (SEC)      =   1.1000    
       ELAPSED SYSTEM TIME (SEC)    =   0.0000    
       ELAPSED TOTAL CPU TIME (SEC) =   1.1000    
       ELAPSED WALLCLOCK TIME (SEC) =          0

               CONVERGENCE CHECKS FOR EQUILIBRIUM ITERATION     3


 AVERAGE FORCE                       1.55       TIME AVG. FORCE        1.12    
 LARGEST RESIDUAL FORCE             2.130E-03   AT NODE       2587   DOF  1
   INSTANCE: CEINST                                                                          
 LARGEST INCREMENT OF DISP.        -1.127E-02   AT NODE        343   DOF  3
   INSTANCE: PBOT                                                                            
 LARGEST CORRECTION TO DISP.        9.808E-04   AT NODE       1520   DOF  3
   INSTANCE: PTOP                                                                            
          DISP.    CORRECTION TOO LARGE COMPARED TO DISP.    INCREMENT

 AVERAGE MOMENT                      0.00       TIME AVG. MOMENT      0.581    
                                                (FROM FORCE     FIELD)
 LARGEST RESIDUAL MOMENT           -1.688E-04   AT NODE          1   DOF  5
   INSTANCE:                                                                                 
 LARGEST INCREMENT OF ROTATION     -1.545E-12   AT NODE          2   DOF  5
   INSTANCE: {assembly node}                                                                 
 LARGEST CORRECTION TO ROTATION     9.926E-12   AT NODE          2   DOF  5
   INSTANCE: {assembly node}                                                                 
          ALL ROTATION CORRECTIONS ARE ZERO

  NUMBER OF EQUATIONS =     63180     NUMBER OF RHS =    1
  NUMBER OF FLOATING PT. OPERATIONS =  5.42E+09

  USING THE DIRECT SOLVER WITH   7 PROCESSORS

     CHECK POINT   START OF SOLVER    

     CHECK POINT  END OF SOLVER       

       ELAPSED USER TIME (SEC)      =   1.1000    
       ELAPSED SYSTEM TIME (SEC)    =   0.0000    
       ELAPSED TOTAL CPU TIME (SEC) =   1.1000    
       ELAPSED WALLCLOCK TIME (SEC) =          1

               CONVERGENCE CHECKS FOR EQUILIBRIUM ITERATION     4


 AVERAGE FORCE                       1.55       TIME AVG. FORCE        1.12    
 LARGEST RESIDUAL FORCE            -4.028E-06   AT NODE       2587   DOF  1
   INSTANCE: CEINST                                                                          
 LARGEST INCREMENT OF DISP.        -1.127E-02   AT NODE        343   DOF  3
   INSTANCE: PBOT                                                                            
 LARGEST CORRECTION TO DISP.        1.044E-06   AT NODE       1280   DOF  3
   INSTANCE: PBOT                                                                            
          THE FORCE     EQUILIBRIUM EQUATIONS HAVE CONVERGED

 AVERAGE MOMENT                      0.00       TIME AVG. MOMENT      0.581    
                                                (FROM FORCE     FIELD)
 LARGEST RESIDUAL MOMENT            6.733E-08   AT NODE          2   DOF  5
   INSTANCE:                                                                                 
 LARGEST INCREMENT OF ROTATION     -1.225E-12   AT NODE          2   DOF  5
   INSTANCE: {assembly node}                                                                 
 LARGEST CORRECTION TO ROTATION     3.200E-13   AT NODE          2   DOF  5
   INSTANCE: {assembly node}                                                                 
          THERE IS ZERO MOMENT    EVERYWHERE
          TIME INCREMENT MAY NOW INCREASE TO    5.625E-03

 ITERATION SUMMARY FOR THE INCREMENT:   4 TOTAL ITERATIONS, OF WHICH
   0 ARE SEVERE DISCONTINUITY ITERATIONS AND  4 ARE EQUILIBRIUM ITERATIONS.

 TIME INCREMENT COMPLETED  3.750E-03,  FRACTION OF STEP COMPLETED  0.990    
 STEP TIME COMPLETED       0.990    ,  TOTAL TIME COMPLETED        0.990    
  
     ASYNCHRONOUS OUTPUT DATABASE FRAME FLUSH STARTED
  


  INCREMENT   145 STARTS. ATTEMPT NUMBER  1, TIME INCREMENT  5.625E-03

  NUMBER OF EQUATIONS =     63180     NUMBER OF RHS =    1
  NUMBER OF FLOATING PT. OPERATIONS =  5.42E+09

  USING THE DIRECT SOLVER WITH   7 PROCESSORS

     CHECK POINT   START OF SOLVER    

     CHECK POINT  END OF SOLVER       

       ELAPSED USER TIME (SEC)      =   1.2000    
       ELAPSED SYSTEM TIME (SEC)    =  0.10000    
       ELAPSED TOTAL CPU TIME (SEC) =   1.3000    
       ELAPSED WALLCLOCK TIME (SEC) =          1
 

 ***WARNING: THE SYSTEM MATRIX HAS 48 NEGATIVE EIGENVALUES.
             EXPLANATIONS ARE SUGGESTED AFTER THE FIRST OCCURRENCE OF THIS MESSAGE.

               CONVERGENCE CHECKS FOR EQUILIBRIUM ITERATION     1


 AVERAGE FORCE                       1.56       TIME AVG. FORCE        1.13    
 LARGEST RESIDUAL FORCE             0.186       AT NODE       2568   DOF  3
   INSTANCE: CEINST                                                                          
 LARGEST INCREMENT OF DISP.        -1.690E-02   AT NODE        343   DOF  3
   INSTANCE: PBOT                                                                            
 LARGEST CORRECTION TO DISP.        7.615E-04   AT NODE       1280   DOF  3
   INSTANCE: PTOP                                                                            
          FORCE     EQUILIBRIUM NOT ACHIEVED WITHIN TOLERANCE.

 AVERAGE MOMENT                      0.00       TIME AVG. MOMENT      0.583    
                                                (FROM FORCE     FIELD)
 LARGEST RESIDUAL MOMENT            7.921E-05   AT NODE          2   DOF  5
   INSTANCE:                                                                                 
 LARGEST INCREMENT OF ROTATION     -1.937E-12   AT NODE          1   DOF  5
   INSTANCE: {assembly node}                                                                 
 LARGEST CORRECTION TO ROTATION     1.160E-13   AT NODE          2   DOF  5
   INSTANCE: {assembly node}                                                                 
          ALL ROTATION CORRECTIONS ARE ZERO

  NUMBER OF EQUATIONS =     63180     NUMBER OF RHS =    1
  NUMBER OF FLOATING PT. OPERATIONS =  5.42E+09

  USING THE DIRECT SOLVER WITH   7 PROCESSORS

     CHECK POINT   START OF SOLVER    

     CHECK POINT  END OF SOLVER       

       ELAPSED USER TIME (SEC)      =   1.1000    
       ELAPSED SYSTEM TIME (SEC)    =  0.10000    
       ELAPSED TOTAL CPU TIME (SEC) =   1.2000    
       ELAPSED WALLCLOCK TIME (SEC) =          0

               CONVERGENCE CHECKS FOR EQUILIBRIUM ITERATION     2


 AVERAGE FORCE                       1.55       TIME AVG. FORCE        1.13    
 LARGEST RESIDUAL FORCE             3.570E-03   AT NODE       2573   DOF  1
   INSTANCE: CEINST                                                                          
 LARGEST INCREMENT OF DISP.        -1.690E-02   AT NODE          8   DOF  3
   INSTANCE: PBOT                                                                            
 LARGEST CORRECTION TO DISP.        1.629E-03   AT NODE       1280   DOF  3
   INSTANCE: PTOP                                                                            
 ESTIMATE OF DISP.    CORRECTION    3.120E-05
 FORCE     EQUILIB. ACCEPTED BASED ON SMALL RESIDUAL AND ESTIMATED CORRECTION

 AVERAGE MOMENT                      0.00       TIME AVG. MOMENT      0.583    
                                                (FROM FORCE     FIELD)
 LARGEST RESIDUAL MOMENT            5.475E-04   AT NODE          2   DOF  5
   INSTANCE:                                                                                 
 LARGEST INCREMENT OF ROTATION     -6.649E-13   AT NODE          2   DOF  5
   INSTANCE: {assembly node}                                                                 
 LARGEST CORRECTION TO ROTATION     1.309E-12   AT NODE          1   DOF  5
   INSTANCE: {assembly node}                                                                 
          ALL ROTATION CORRECTIONS ARE ZERO

 ITERATION SUMMARY FOR THE INCREMENT:   2 TOTAL ITERATIONS, OF WHICH
   0 ARE SEVERE DISCONTINUITY ITERATIONS AND  2 ARE EQUILIBRIUM ITERATIONS.

 TIME INCREMENT COMPLETED  5.625E-03,  FRACTION OF STEP COMPLETED  0.996    
 STEP TIME COMPLETED       0.996    ,  TOTAL TIME COMPLETED        0.996    


  INCREMENT   146 STARTS. ATTEMPT NUMBER  1, TIME INCREMENT  4.375E-03

  NUMBER OF EQUATIONS =     63180     NUMBER OF RHS =    1
  NUMBER OF FLOATING PT. OPERATIONS =  5.42E+09

  USING THE DIRECT SOLVER WITH   7 PROCESSORS

     CHECK POINT   START OF SOLVER    

     CHECK POINT  END OF SOLVER       

       ELAPSED USER TIME (SEC)      =   1.1000    
       ELAPSED SYSTEM TIME (SEC)    =  0.10000    
       ELAPSED TOTAL CPU TIME (SEC) =   1.2000    
       ELAPSED WALLCLOCK TIME (SEC) =          0
 

 ***WARNING: THE SYSTEM MATRIX HAS 51 NEGATIVE EIGENVALUES.
             EXPLANATIONS ARE SUGGESTED AFTER THE FIRST OCCURRENCE OF THIS MESSAGE.

               CONVERGENCE CHECKS FOR EQUILIBRIUM ITERATION     1


 AVERAGE FORCE                       1.55       TIME AVG. FORCE        1.13    
 LARGEST RESIDUAL FORCE             1.657E-02   AT NODE       2575   DOF  1
   INSTANCE: CEINST                                                                          
 LARGEST INCREMENT OF DISP.        -1.313E-02   AT NODE          5   DOF  3
   INSTANCE: PBOT                                                                            
 LARGEST CORRECTION TO DISP.       -4.153E-03   AT NODE       1280   DOF  3
   INSTANCE: PBOT                                                                            
          FORCE     EQUILIBRIUM NOT ACHIEVED WITHIN TOLERANCE.

 AVERAGE MOMENT                      0.00       TIME AVG. MOMENT      0.584    
                                                (FROM FORCE     FIELD)
 LARGEST RESIDUAL MOMENT            4.226E-03   AT NODE          2   DOF  5
   INSTANCE:                                                                                 
 LARGEST INCREMENT OF ROTATION     -3.008E-12   AT NODE          2   DOF  5
   INSTANCE: {assembly node}                                                                 
 LARGEST CORRECTION TO ROTATION    -2.490E-12   AT NODE          2   DOF  5
   INSTANCE: {assembly node}                                                                 
          ALL ROTATION CORRECTIONS ARE ZERO
          THE MOMENT    IS ZERO EVERYWHERE BUT THE MOMENT    RESIDUAL OR
          THE ROTATION CORRECTION IS NON-ZERO

  NUMBER OF EQUATIONS =     63180     NUMBER OF RHS =    1
  NUMBER OF FLOATING PT. OPERATIONS =  5.42E+09

  USING THE DIRECT SOLVER WITH   7 PROCESSORS

     CHECK POINT   START OF SOLVER    

     CHECK POINT  END OF SOLVER       

       ELAPSED USER TIME (SEC)      =   1.1000    
       ELAPSED SYSTEM TIME (SEC)    =   0.0000    
       ELAPSED TOTAL CPU TIME (SEC) =   1.1000    
       ELAPSED WALLCLOCK TIME (SEC) =          0

               CONVERGENCE CHECKS FOR EQUILIBRIUM ITERATION     2


 AVERAGE FORCE                       1.55       TIME AVG. FORCE        1.13    
 LARGEST RESIDUAL FORCE            -1.147E-04   AT NODE       2574   DOF  1
   INSTANCE: CEINST                                                                          
 LARGEST INCREMENT OF DISP.        -1.313E-02   AT NODE          5   DOF  3
   INSTANCE: PBOT                                                                            
 LARGEST CORRECTION TO DISP.        3.633E-05   AT NODE       1280   DOF  3
   INSTANCE: PBOT                                                                            
          THE FORCE     EQUILIBRIUM EQUATIONS HAVE CONVERGED

 AVERAGE MOMENT                      0.00       TIME AVG. MOMENT      0.584    
                                                (FROM FORCE     FIELD)
 LARGEST RESIDUAL MOMENT           -7.444E-07   AT NODE          2   DOF  5
   INSTANCE:                                                                                 
 LARGEST INCREMENT OF ROTATION      7.198E-13   AT NODE          2   DOF  5
   INSTANCE: {assembly node}                                                                 
 LARGEST CORRECTION TO ROTATION     3.727E-12   AT NODE          2   DOF  5
   INSTANCE: {assembly node}                                                                 
          THERE IS ZERO MOMENT    EVERYWHERE

 ITERATION SUMMARY FOR THE INCREMENT:   2 TOTAL ITERATIONS, OF WHICH
   0 ARE SEVERE DISCONTINUITY ITERATIONS AND  2 ARE EQUILIBRIUM ITERATIONS.

 TIME INCREMENT COMPLETED  4.375E-03,  FRACTION OF STEP COMPLETED   1.00    
 STEP TIME COMPLETED        1.00    ,  TOTAL TIME COMPLETED         1.00    


          THE ANALYSIS HAS BEEN COMPLETED



     ANALYSIS SUMMARY:
     TOTAL OF        146  INCREMENTS
                      14  CUTBACKS IN AUTOMATIC INCREMENTATION
                     305  ITERATIONS INCLUDING CONTACT ITERATIONS IF PRESENT
                     305  PASSES THROUGH THE EQUATION SOLVER OF WHICH 
                     305  INVOLVE MATRIX DECOMPOSITION, INCLUDING
                       0  DECOMPOSITION(S) OF THE MASS MATRIX
                       1  REORDERING OF EQUATIONS TO MINIMIZE WAVEFRONT
                       0  ADDITIONAL RESIDUAL EVALUATIONS FOR LINE SEARCHES
                       0  ADDITIONAL OPERATOR EVALUATIONS FOR LINE SEARCHES
                       8  WARNING MESSAGES DURING USER INPUT PROCESSING
                     140  WARNING MESSAGES DURING ANALYSIS
                       2  ANALYSIS WARNINGS ARE NUMERICAL PROBLEM MESSAGES
                     138  ANALYSIS WARNINGS ARE NEGATIVE EIGENVALUE MESSAGES
                       0  ERROR MESSAGES



     JOB TIME SUMMARY
       USER TIME (SEC)      =   1459.2    
       SYSTEM TIME (SEC)    =   46.900    
       TOTAL CPU TIME (SEC) =   1506.1    
       WALLCLOCK TIME (SEC) =        279
