 Abaqus/Standard 3DEXPERIENCE R2018x                  DATE 02-Oct-2021 TIME 17:55:47
 SUMMARY OF JOB INFORMATION:
 STEP  INC ATT SEVERE EQUIL TOTAL  TOTAL      STEP       INC OF       DOF    IF
               DISCON ITERS ITERS  TIME/    TIME/LPF    TIME/LPF    MONITOR RIKS
               ITERS               FREQ
   1     1   1     0     2     2  0.00100    0.00100    0.001000  
   1     2   1     0     1     1  0.00200    0.00200    0.001000  
   1     3   1     0     1     1  0.00350    0.00350    0.001500  
   1     4   1     0     1     1  0.00575    0.00575    0.002250  
   1     5   1     0     1     1  0.00913    0.00913    0.003375  
   1     6   1     0     1     1  0.0100     0.0100     0.0008750 
   1     7   1     0     2     2  0.0176     0.0176     0.007594  
   1     8   1     0     1     1  0.0200     0.0200     0.002406  
   1     9   1     0     1     1  0.0300     0.0300     0.01000   
   1    10   1     0     1     1  0.0400     0.0400     0.01000   
   1    11   1     0     1     1  0.0500     0.0500     0.01000   
   1    12   1     0     2     2  0.0600     0.0600     0.01000   
   1    13   1     0     2     2  0.0700     0.0700     0.01000   
   1    14   1     0     1     1  0.0800     0.0800     0.01000   
   1    15   1     0     1     1  0.0900     0.0900     0.01000   
   1    16   1     0     1     1  0.100      0.100      0.01000   
   1    17   1     0     1     1  0.110      0.110      0.01000   
   1    18   1     0     1     1  0.120      0.120      0.01000   
   1    19   1     0     1     1  0.130      0.130      0.01000   
   1    20   1     0     1     1  0.140      0.140      0.01000   
   1    21   1     0     1     1  0.150      0.150      0.01000   
   1    22   1     0     2     2  0.160      0.160      0.01000   
   1    23   1     0     2     2  0.170      0.170      0.01000   
   1    24   1     0     1     1  0.180      0.180      0.01000   
   1    25   1     0     1     1  0.190      0.190      0.01000   
   1    26   1     0     1     1  0.200      0.200      0.01000   
   1    27   1     0     1     1  0.210      0.210      0.01000   
   1    28   1     0     1     1  0.220      0.220      0.01000   
   1    29   1     0     1     1  0.230      0.230      0.01000   
   1    30   1     0     3     3  0.240      0.240      0.01000   
   1    31   1     0     2     2  0.250      0.250      0.01000   
   1    32   1     0     1     1  0.260      0.260      0.01000   
   1    33   1     0     1     1  0.270      0.270      0.01000   
   1    34   1     0     2     2  0.280      0.280      0.01000   
   1    35   1     0     2     2  0.290      0.290      0.01000   
   1    36   1     0     1     1  0.300      0.300      0.01000   
   1    37   1     0     1     1  0.310      0.310      0.01000   
   1    38   1     0     2     2  0.320      0.320      0.01000   
   1    39   1     0     2     2  0.330      0.330      0.01000   
   1    40   1     0     1     1  0.340      0.340      0.01000   
   1    41   1     0     1     1  0.350      0.350      0.01000   
   1    42   1     0     2     2  0.360      0.360      0.01000   
   1    43   1     0     2     2  0.370      0.370      0.01000   
   1    44   1     0     1     1  0.380      0.380      0.01000   
   1    45   1     0     2     2  0.390      0.390      0.01000   
   1    46   1     0     1     1  0.400      0.400      0.01000   
   1    47   1     0     2     2  0.410      0.410      0.01000   
   1    48   1     0     1     1  0.420      0.420      0.01000   
   1    49   1     0     1     1  0.430      0.430      0.01000   
   1    50   1     0     2     2  0.440      0.440      0.01000   
   1    51   1     0     1     1  0.450      0.450      0.01000   
   1    52   1     0     2     2  0.460      0.460      0.01000   
   1    53   1     0     2     2  0.470      0.470      0.01000   
   1    54   1     0     1     1  0.480      0.480      0.01000   
   1    55   1     0     1     1  0.490      0.490      0.01000   
   1    56   1     0     1     1  0.500      0.500      0.01000   
   1    57   1     0     2     2  0.510      0.510      0.01000   
   1    58   1     0     2     2  0.520      0.520      0.01000   
   1    59   1     0     2     2  0.530      0.530      0.01000   
   1    60   1     0     1     1  0.540      0.540      0.01000   
   1    61   1     0     1     1  0.550      0.550      0.01000   
   1    62   1     0     3     3  0.560      0.560      0.01000   
   1    63   1     0     2     2  0.570      0.570      0.01000   
   1    64   1     0     2     2  0.580      0.580      0.01000   
   1    65   1     0     3     3  0.590      0.590      0.01000   
   1    66   1     0     2     2  0.600      0.600      0.01000   
   1    67   1     0     2     2  0.610      0.610      0.01000   
   1    68   1     0     2     2  0.620      0.620      0.01000   
   1    69   1     0     2     2  0.630      0.630      0.01000   
   1    70   1     0     3     3  0.640      0.640      0.01000   
   1    71   1     0     2     2  0.650      0.650      0.01000   
   1    72   1     0     2     2  0.660      0.660      0.01000   
   1    73   1     0     2     2  0.670      0.670      0.01000   
   1    74   1     0     3     3  0.680      0.680      0.01000   
   1    75   1     0     2     2  0.690      0.690      0.01000   
   1    76   1     0     2     2  0.700      0.700      0.01000   
   1    77   1     0     2     2  0.710      0.710      0.01000   
   1    78   1     0     3     3  0.720      0.720      0.01000   
   1    79   1     0     2     2  0.730      0.730      0.01000   
   1    80   1     0     2     2  0.740      0.740      0.01000   
   1    81   1U    0     4     4  0.740      0.740      0.01000   
   1    81   2     0     2     2  0.743      0.743      0.002500  
   1    82   1     0     1     1  0.746      0.746      0.003750  
   1    83   1     0     4     4  0.750      0.750      0.003750  
   1    84   1     0     2     2  0.760      0.760      0.01000   
   1    85   1     0     2     2  0.770      0.770      0.01000   
   1    86   1     0     2     2  0.780      0.780      0.01000   
   1    87   1     0     3     3  0.790      0.790      0.01000   
   1    88   1     0     2     2  0.800      0.800      0.01000   
   1    89   1     0     2     2  0.810      0.810      0.01000   
   1    90   1U    0     4     4  0.810      0.810      0.01000   
   1    90   2     0     2     2  0.813      0.813      0.002500  
   1    91   1     0     1     1  0.816      0.816      0.003750  
   1    92   1U    0     4     4  0.816      0.816      0.003750  
   1    92   2     0     1     1  0.817      0.817      0.0009375 
   1    93   1     0     3     3  0.819      0.819      0.001406  
   1    94   1     0     1     1  0.820      0.820      0.001406  
   1    95   1     0     1     1  0.823      0.823      0.003164  
   1    96   1     0     2     2  0.828      0.828      0.004746  
   1    97   1     0     2     2  0.830      0.830      0.002090  
   1    98   1     0     2     2  0.840      0.840      0.01000   
   1    99   1U    0     4     4  0.840      0.840      0.01000   
   1    99   2     0     2     2  0.843      0.843      0.002500  
   1   100   1     0     1     1  0.846      0.846      0.003750  
   1   101   1U    0     4     4  0.846      0.846      0.003750  
   1   101   2     0     1     1  0.847      0.847      0.0009375 
   1   102   1     0     2     2  0.849      0.849      0.001406  
   1   103   1     0     1     1  0.850      0.850      0.001406  
   1   104   1     0     2     2  0.853      0.853      0.003164  
   1   105   1     0     2     2  0.858      0.858      0.004746  
   1   106   1     0     1     1  0.860      0.860      0.002090  
   1   107   1     0     2     2  0.870      0.870      0.01000   
   1   108   1U    0     4     4  0.870      0.870      0.01000   
   1   108   2     0     2     2  0.872      0.872      0.002500  
   1   109   1     0     1     1  0.876      0.876      0.003750  
   1   110   1U    0     4     4  0.876      0.876      0.003750  
   1   110   2     0     1     1  0.877      0.877      0.0009375 
   1   111   1     0     2     2  0.879      0.879      0.001406  
   1   112   1     0     1     1  0.880      0.880      0.001406  
   1   113   1     0     2     2  0.883      0.883      0.003164  
   1   114   1     0     2     2  0.888      0.888      0.004746  
   1   115   1     0     1     1  0.890      0.890      0.002090  
   1   116   1     0     2     2  0.900      0.900      0.01000   
   1   117   1U    0     4     4  0.900      0.900      0.01000   
   1   117   2     0     2     2  0.902      0.902      0.002500  
   1   118   1     0     1     1  0.906      0.906      0.003750  
   1   119   1U    0     4     4  0.906      0.906      0.003750  
   1   119   2     0     1     1  0.907      0.907      0.0009375 
   1   120   1     0     2     2  0.909      0.909      0.001406  
   1   121   1     0     1     1  0.910      0.910      0.001406  
   1   122   1     0     2     2  0.913      0.913      0.003164  
   1   123   1     0     2     2  0.918      0.918      0.004746  
   1   124   1     0     1     1  0.920      0.920      0.002090  
   1   125   1     0     3     3  0.930      0.930      0.01000   
   1   126   1U    0     4     4  0.930      0.930      0.01000   
   1   126   2     0     2     2  0.932      0.932      0.002500  
   1   127   1     0     1     1  0.936      0.936      0.003750  
   1   128   1U    0     5     5  0.936      0.936      0.003750  
   1   128   2     0     1     1  0.937      0.937      0.0009375 
   1   129   1     0     2     2  0.939      0.939      0.001406  
   1   130   1     0     2     2  0.940      0.940      0.001406  
   1   131   1     0     1     1  0.943      0.943      0.003164  
   1   132   1     0     3     3  0.948      0.948      0.004746  
   1   133   1     0     1     1  0.950      0.950      0.002090  
   1   134   1U    0     5     5  0.950      0.950      0.01000   
   1   134   2     0     1     1  0.953      0.953      0.002500  
   1   135   1U    0     5     5  0.953      0.953      0.003750  
   1   135   2     0     1     1  0.953      0.953      0.0009375 
   1   136   1     0     4     4  0.955      0.955      0.001406  
   1   137   1     0     2     2  0.957      0.957      0.002109  
   1   138   1     0     1     1  0.960      0.960      0.003047  
   1   139   1     0     2     2  0.965      0.965      0.004570  
   1   140   1     0     3     3  0.970      0.970      0.005430  
   1   141   1     0     2     2  0.980      0.980      0.01000   
   1   142   1U    0     4     4  0.980      0.980      0.01000   
   1   142   2     0     2     2  0.982      0.982      0.002500  
   1   143   1     0     2     2  0.986      0.986      0.003750  
   1   144   1     0     4     4  0.990      0.990      0.003750  
   1   145   1     0     2     2  0.996      0.996      0.005625  
   1   146   1     0     2     2  1.00       1.00       0.004375  
                          
 THE ANALYSIS HAS COMPLETED SUCCESSFULLY
