*Heading
** Job name: DCB Model name: Model-1
** Generated by: Abaqus/CAE 2018
*Preprint, echo=NO, model=NO, history=NO, contact=NO
**
** PARTS
**
*Part, name=Bot
*Node
      1,          40.,           3.,   2.24000001
      2,          40.,           3.,           0.
      3,           0.,           3.,         1.12
      4,           0.,           3.,           0.
      5,           0.,           3.,   2.24000001
      6,          40.,           0.,           0.
      7,           0.,           0.,           0.
      8,           0.,           0.,   2.24000001
      9,           0.,           0.,         1.12
     10,          40.,           0.,   2.24000001
     11,         150.,           3.,   2.24000001
     12,         150.,           0.,   2.24000001
     13,         150.,           0.,           0.
     14,         150.,           3.,           0.
     15,          40.,           3.,   1.67999995
     16,          40.,           3.,         1.12
     17,          40.,           3.,  0.560000002
     18,         39.5,           3.,           0.
     19,          39.,           3.,           0.
     20,         38.5,           3.,           0.
** ... 10515 like lines cut
*Element, type=C3D8
   1,  350, 2522, 6066, 1732,    1,   15, 1258,  177
   2, 2522, 2523, 6067, 6066,   15,   16, 1259, 1258
   3, 2523, 2524, 6068, 6067,   16,   17, 1260, 1259
   4, 2524,  356, 2127, 6068,   17,    2,   18, 1260
   5, 1732, 6066, 6069, 1733,  177, 1258, 1261,  176
   6, 6066, 6067, 6070, 6069, 1258, 1259, 1262, 1261
   7, 6067, 6068, 6071, 6070, 1259, 1260, 1263, 1262
   8, 6068, 2127, 2128, 6071, 1260,   18,   19, 1263
   9, 1733, 6069, 6072, 1734,  176, 1261, 1264,  175
  10, 6069, 6070, 6073, 6072, 1261, 1262, 1265, 1264
  11, 6070, 6071, 6074, 6073, 1262, 1263, 1266, 1265
  12, 6071, 2128, 2129, 6074, 1263,   19,   20, 1266
  13, 1734, 6072, 6075, 1735,  175, 1264, 1267,  174
  14, 6072, 6073, 6076, 6075, 1264, 1265, 1268, 1267
  15, 6073, 6074, 6077, 6076, 1265, 1266, 1269, 1268
  16, 6074, 2129, 2130, 6077, 1266,   20,   21, 1269
  17, 1735, 6075, 6078, 1736,  174, 1267, 1270,  173
  18, 6075, 6076, 6079, 6078, 1267, 1268, 1271, 1270
  19, 6076, 6077, 6080, 6079, 1268, 1269, 1272, 1271
  20, 6077, 2130, 2131, 6080, 1269,   21,   22, 1272
** ... 7180 like lines cut
*Nset, nset=Front
   3,   9, 361, 362, 363, 364, 365
*Elset, elset=Front
  318,  319,  638,  639,  958,  959, 1278, 1279, 1598, 1599, 1918, 1919
*Nset, nset=Back
   3,   9, 361, 362, 363, 364, 365
*Elset, elset=Back
  318,  319,  638,  639,  958,  959, 1278, 1279, 1598, 1599, 1918, 1919
*Nset, nset=Top
    1,   10,   11,   12,  346,  347,  348,  349,  350,  366,  367,  368,  369,  370,  601,  602
  603,  604,  605,  606,  607,  608,  609,  610,  611,  612,  613,  614,  615,  616,  617,  618
  619,  620,  621,  622,  623,  624,  625,  626,  627,  628,  629,  630,  631,  632,  633,  634
  635,  636,  637,  638,  639,  640,  641,  642,  643,  644,  645,  646,  647,  648,  649,  650
  651,  652,  653,  654,  655,  656,  657,  658,  659,  660,  661,  662,  663,  664,  665,  666
  667,  668,  669,  670,  671,  672,  673,  674,  675,  676,  677,  678,  679,  680,  681,  682
  683,  684,  685,  686,  687,  688,  689,  690,  691,  692,  693,  694,  695,  696,  697,  698
  699,  700,  701,  702,  703,  704,  705,  706,  707,  708,  709,  710,  711,  712,  713,  714
  715,  716,  717,  718,  719,  720,  721,  722,  723,  724,  725,  726,  727,  728,  729,  730
  731,  732,  733,  734,  735,  736,  737,  738,  739,  740,  741,  742,  743,  744,  745,  746
  747,  748,  749,  750,  751,  752,  753,  754,  755,  756,  757,  758,  759,  760,  761,  762
  763,  764,  765,  766,  767,  768,  769,  770,  771,  772,  773,  774,  775,  776,  777,  778
  779,  780,  781,  782,  783,  784,  785,  786,  787,  788,  789,  790,  791,  792,  793,  794
  795,  796,  797,  798,  799,  800,  801,  802,  803,  804,  805,  806,  807,  808,  809,  810
  811,  812,  813,  814,  815,  816,  817,  818,  819, 1039, 1040, 1041, 1042, 1043, 1044, 1045
 1046, 1047, 1048, 1049, 1050, 1051, 1052, 1053, 1054, 1055, 1056, 1057, 1058, 1059, 1060, 1061
 1062, 1063, 1064, 1065, 1066, 1067, 1068, 1069, 1070, 1071, 1072, 1073, 1074, 1075, 1076, 1077
 1078, 1079, 1080, 1081, 1082, 1083, 1084, 1085, 1086, 1087, 1088, 1089, 1090, 1091, 1092, 1093
 1094, 1095, 1096, 1097, 1098, 1099, 1100, 1101, 1102, 1103, 1104, 1105, 1106, 1107, 1108, 1109
 1110, 1111, 1112, 1113, 1114, 1115, 1116, 1117, 1118, 1119, 1120, 1121, 1122, 1123, 1124, 1125
** ... 77 like lines cut
*Elset, elset=Top
 1921, 1922, 1923, 1924, 1925, 1926, 1945, 1946, 1947, 1948, 1949, 1950, 1969, 1970, 1971, 1972
 1973, 1974, 1993, 1994, 1995, 1996, 1997, 1998, 2017, 2018, 2019, 2020, 2021, 2022, 2041, 2042
 2043, 2044, 2045, 2046, 2065, 2066, 2067, 2068, 2069, 2070, 2089, 2090, 2091, 2092, 2093, 2094
 2113, 2114, 2115, 2116, 2117, 2118, 2137, 2138, 2139, 2140, 2141, 2142, 2161, 2162, 2163, 2164
 2165, 2166, 2185, 2186, 2187, 2188, 2189, 2190, 2209, 2210, 2211, 2212, 2213, 2214, 2233, 2234
 2235, 2236, 2237, 2238, 2257, 2258, 2259, 2260, 2261, 2262, 2281, 2282, 2283, 2284, 2285, 2286
 2305, 2306, 2307, 2308, 2309, 2310, 2329, 2330, 2331, 2332, 2333, 2334, 2353, 2354, 2355, 2356
 2357, 2358, 2377, 2378, 2379, 2380, 2381, 2382, 2401, 2402, 2403, 2404, 2405, 2406, 2425, 2426
 2427, 2428, 2429, 2430, 2449, 2450, 2451, 2452, 2453, 2454, 2473, 2474, 2475, 2476, 2477, 2478
 2497, 2498, 2499, 2500, 2501, 2502, 2521, 2522, 2523, 2524, 2525, 2526, 2545, 2546, 2547, 2548
 2549, 2550, 2569, 2570, 2571, 2572, 2573, 2574, 2593, 2594, 2595, 2596, 2597, 2598, 2617, 2618
 2619, 2620, 2621, 2622, 2641, 2642, 2643, 2644, 2645, 2646, 2665, 2666, 2667, 2668, 2669, 2670
 2689, 2690, 2691, 2692, 2693, 2694, 2713, 2714, 2715, 2716, 2717, 2718, 2737, 2738, 2739, 2740
 2741, 2742, 2761, 2762, 2763, 2764, 2765, 2766, 2785, 2786, 2787, 2788, 2789, 2790, 2809, 2810
 2811, 2812, 2813, 2814, 2833, 2834, 2835, 2836, 2837, 2838, 2857, 2858, 2859, 2860, 2861, 2862
 2881, 2882, 2883, 2884, 2885, 2886, 2905, 2906, 2907, 2908, 2909, 2910, 2929, 2930, 2931, 2932
 2933, 2934, 2953, 2954, 2955, 2956, 2957, 2958, 2977, 2978, 2979, 2980, 2981, 2982, 3001, 3002
 3003, 3004, 3005, 3006, 3025, 3026, 3027, 3028, 3029, 3030, 3049, 3050, 3051, 3052, 3053, 3054
 3073, 3074, 3075, 3076, 3077, 3078, 3097, 3098, 3099, 3100, 3101, 3102, 3121, 3122, 3123, 3124
 3125, 3126, 3145, 3146, 3147, 3148, 3149, 3150, 3169, 3170, 3171, 3172, 3173, 3174, 3193, 3194
** ... 63 like lines cut
*Nset, nset=Bot
    2,    6,   13,   14,  356,  357,  358,  359,  360,  374,  375,  376,  377,  378,  382,  383
  384,  385,  386,  387,  388,  389,  390,  391,  392,  393,  394,  395,  396,  397,  398,  399
  400,  401,  402,  403,  404,  405,  406,  407,  408,  409,  410,  411,  412,  413,  414,  415
  416,  417,  418,  419,  420,  421,  422,  423,  424,  425,  426,  427,  428,  429,  430,  431
  432,  433,  434,  435,  436,  437,  438,  439,  440,  441,  442,  443,  444,  445,  446,  447
  448,  449,  450,  451,  452,  453,  454,  455,  456,  457,  458,  459,  460,  461,  462,  463
  464,  465,  466,  467,  468,  469,  470,  471,  472,  473,  474,  475,  476,  477,  478,  479
  480,  481,  482,  483,  484,  485,  486,  487,  488,  489,  490,  491,  492,  493,  494,  495
  496,  497,  498,  499,  500,  501,  502,  503,  504,  505,  506,  507,  508,  509,  510,  511
  512,  513,  514,  515,  516,  517,  518,  519,  520,  521,  522,  523,  524,  525,  526,  527
  528,  529,  530,  531,  532,  533,  534,  535,  536,  537,  538,  539,  540,  541,  542,  543
  544,  545,  546,  547,  548,  549,  550,  551,  552,  553,  554,  555,  556,  557,  558,  559
  560,  561,  562,  563,  564,  565,  566,  567,  568,  569,  570,  571,  572,  573,  574,  575
  576,  577,  578,  579,  580,  581,  582,  583,  584,  585,  586,  587,  588,  589,  590,  591
  592,  593,  594,  595,  596,  597,  598,  599,  600,  820,  821,  822,  823,  824,  825,  826
  827,  828,  829,  830,  831,  832,  833,  834,  835,  836,  837,  838,  839,  840,  841,  842
  843,  844,  845,  846,  847,  848,  849,  850,  851,  852,  853,  854,  855,  856,  857,  858
  859,  860,  861,  862,  863,  864,  865,  866,  867,  868,  869,  870,  871,  872,  873,  874
  875,  876,  877,  878,  879,  880,  881,  882,  883,  884,  885,  886,  887,  888,  889,  890
  891,  892,  893,  894,  895,  896,  897,  898,  899,  900,  901,  902,  903,  904,  905,  906
** ... 77 like lines cut
*Elset, elset=Bot
 1939, 1940, 1941, 1942, 1943, 1944, 1963, 1964, 1965, 1966, 1967, 1968, 1987, 1988, 1989, 1990
 1991, 1992, 2011, 2012, 2013, 2014, 2015, 2016, 2035, 2036, 2037, 2038, 2039, 2040, 2059, 2060
 2061, 2062, 2063, 2064, 2083, 2084, 2085, 2086, 2087, 2088, 2107, 2108, 2109, 2110, 2111, 2112
 2131, 2132, 2133, 2134, 2135, 2136, 2155, 2156, 2157, 2158, 2159, 2160, 2179, 2180, 2181, 2182
 2183, 2184, 2203, 2204, 2205, 2206, 2207, 2208, 2227, 2228, 2229, 2230, 2231, 2232, 2251, 2252
 2253, 2254, 2255, 2256, 2275, 2276, 2277, 2278, 2279, 2280, 2299, 2300, 2301, 2302, 2303, 2304
 2323, 2324, 2325, 2326, 2327, 2328, 2347, 2348, 2349, 2350, 2351, 2352, 2371, 2372, 2373, 2374
 2375, 2376, 2395, 2396, 2397, 2398, 2399, 2400, 2419, 2420, 2421, 2422, 2423, 2424, 2443, 2444
 2445, 2446, 2447, 2448, 2467, 2468, 2469, 2470, 2471, 2472, 2491, 2492, 2493, 2494, 2495, 2496
 2515, 2516, 2517, 2518, 2519, 2520, 2539, 2540, 2541, 2542, 2543, 2544, 2563, 2564, 2565, 2566
 2567, 2568, 2587, 2588, 2589, 2590, 2591, 2592, 2611, 2612, 2613, 2614, 2615, 2616, 2635, 2636
 2637, 2638, 2639, 2640, 2659, 2660, 2661, 2662, 2663, 2664, 2683, 2684, 2685, 2686, 2687, 2688
 2707, 2708, 2709, 2710, 2711, 2712, 2731, 2732, 2733, 2734, 2735, 2736, 2755, 2756, 2757, 2758
 2759, 2760, 2779, 2780, 2781, 2782, 2783, 2784, 2803, 2804, 2805, 2806, 2807, 2808, 2827, 2828
 2829, 2830, 2831, 2832, 2851, 2852, 2853, 2854, 2855, 2856, 2875, 2876, 2877, 2878, 2879, 2880
 2899, 2900, 2901, 2902, 2903, 2904, 2923, 2924, 2925, 2926, 2927, 2928, 2947, 2948, 2949, 2950
 2951, 2952, 2971, 2972, 2973, 2974, 2975, 2976, 2995, 2996, 2997, 2998, 2999, 3000, 3019, 3020
 3021, 3022, 3023, 3024, 3043, 3044, 3045, 3046, 3047, 3048, 3067, 3068, 3069, 3070, 3071, 3072
 3091, 3092, 3093, 3094, 3095, 3096, 3115, 3116, 3117, 3118, 3119, 3120, 3139, 3140, 3141, 3142
 3143, 3144, 3163, 3164, 3165, 3166, 3167, 3168, 3187, 3188, 3189, 3190, 3191, 3192, 3211, 3212
** ... 63 like lines cut
*Nset, nset=FullGeom, generate
     1,  10535,      1
*Elset, elset=FullGeom, generate
    1,  7200,     1
*Nset, nset=X_Edges
    1,    2,    4,    5,    6,    7,    8,   10,   11,   12,   13,   14,   18,   19,   20,   21
   22,   23,   24,   25,   26,   27,   28,   29,   30,   31,   32,   33,   34,   35,   36,   37
   38,   39,   40,   41,   42,   43,   44,   45,   46,   47,   48,   49,   50,   51,   52,   53
   54,   55,   56,   57,   58,   59,   60,   61,   62,   63,   64,   65,   66,   67,   68,   69
   70,   71,   72,   73,   74,   75,   76,   77,   78,   79,   80,   81,   82,   83,   84,   85
   86,   87,   88,   89,   90,   91,   92,   93,   94,   95,   96,   99,  100,  101,  102,  103
  104,  105,  106,  107,  108,  109,  110,  111,  112,  113,  114,  115,  116,  117,  118,  119
  120,  121,  122,  123,  124,  125,  126,  127,  128,  129,  130,  131,  132,  133,  134,  135
  136,  137,  138,  139,  140,  141,  142,  143,  144,  145,  146,  147,  148,  149,  150,  151
  152,  153,  154,  155,  156,  157,  158,  159,  160,  161,  162,  163,  164,  165,  166,  167
  168,  169,  170,  171,  172,  173,  174,  175,  176,  177,  181,  182,  183,  184,  185,  186
  187,  188,  189,  190,  191,  192,  193,  194,  195,  196,  197,  198,  199,  200,  201,  202
  203,  204,  205,  206,  207,  208,  209,  210,  211,  212,  213,  214,  215,  216,  217,  218
  219,  220,  221,  222,  223,  224,  225,  226,  227,  228,  229,  230,  231,  232,  233,  234
  235,  236,  237,  238,  239,  240,  241,  242,  243,  244,  245,  246,  247,  248,  249,  250
  251,  252,  253,  254,  255,  256,  257,  258,  259,  262,  263,  264,  265,  266,  267,  268
  269,  270,  271,  272,  273,  274,  275,  276,  277,  278,  279,  280,  281,  282,  283,  284
  285,  286,  287,  288,  289,  290,  291,  292,  293,  294,  295,  296,  297,  298,  299,  300
  301,  302,  303,  304,  305,  306,  307,  308,  309,  310,  311,  312,  313,  314,  315,  316
  317,  318,  319,  320,  321,  322,  323,  324,  325,  326,  327,  328,  329,  330,  331,  332
** ... 56 like lines cut
*Elset, elset=X_Edges
    1,    4,    5,    8,    9,   12,   13,   16,   17,   20,   21,   24,   25,   28,   29,   32
   33,   36,   37,   40,   41,   44,   45,   48,   49,   52,   53,   56,   57,   60,   61,   64
   65,   68,   69,   72,   73,   76,   77,   80,   81,   84,   85,   88,   89,   92,   93,   96
   97,  100,  101,  104,  105,  108,  109,  112,  113,  116,  117,  120,  121,  124,  125,  128
  129,  132,  133,  136,  137,  140,  141,  144,  145,  148,  149,  152,  153,  156,  157,  160
  161,  164,  165,  168,  169,  172,  173,  176,  177,  180,  181,  184,  185,  188,  189,  192
  193,  196,  197,  200,  201,  204,  205,  208,  209,  212,  213,  216,  217,  220,  221,  224
  225,  228,  229,  232,  233,  236,  237,  240,  241,  244,  245,  248,  249,  252,  253,  256
  257,  260,  261,  264,  265,  268,  269,  272,  273,  276,  277,  280,  281,  284,  285,  288
  289,  292,  293,  296,  297,  300,  301,  304,  305,  308,  309,  312,  313,  316,  317,  320
 1601, 1604, 1605, 1608, 1609, 1612, 1613, 1616, 1617, 1620, 1621, 1624, 1625, 1628, 1629, 1632
 1633, 1636, 1637, 1640, 1641, 1644, 1645, 1648, 1649, 1652, 1653, 1656, 1657, 1660, 1661, 1664
 1665, 1668, 1669, 1672, 1673, 1676, 1677, 1680, 1681, 1684, 1685, 1688, 1689, 1692, 1693, 1696
 1697, 1700, 1701, 1704, 1705, 1708, 1709, 1712, 1713, 1716, 1717, 1720, 1721, 1724, 1725, 1728
 1729, 1732, 1733, 1736, 1737, 1740, 1741, 1744, 1745, 1748, 1749, 1752, 1753, 1756, 1757, 1760
 1761, 1764, 1765, 1768, 1769, 1772, 1773, 1776, 1777, 1780, 1781, 1784, 1785, 1788, 1789, 1792
 1793, 1796, 1797, 1800, 1801, 1804, 1805, 1808, 1809, 1812, 1813, 1816, 1817, 1820, 1821, 1824
 1825, 1828, 1829, 1832, 1833, 1836, 1837, 1840, 1841, 1844, 1845, 1848, 1849, 1852, 1853, 1856
 1857, 1860, 1861, 1864, 1865, 1868, 1869, 1872, 1873, 1876, 1877, 1880, 1881, 1884, 1885, 1888
 1889, 1892, 1893, 1896, 1897, 1900, 1901, 1904, 1905, 1908, 1909, 1912, 1913, 1916, 1917, 1920
** ... 55 like lines cut
*Nset, nset=Y_Edges
   1,   2,   4,   5,   6,   7,   8,  10,  11,  12,  13,  14, 341, 342, 343, 344
 345, 346, 347, 348, 349, 350, 351, 352, 353, 354, 355, 356, 357, 358, 359, 360
 366, 367, 368, 369, 370, 374, 375, 376, 377, 378
*Elset, elset=Y_Edges
    1,    4,  317,  320,  321,  324,  637,  640,  641,  644,  957,  960,  961,  964, 1277, 1280
 1281, 1284, 1597, 1600, 1601, 1604, 1917, 1920, 1921, 1922, 1923, 1924, 1925, 1926, 1939, 1940
 1941, 1942, 1943, 1944, 7177, 7178, 7179, 7180, 7181, 7182, 7195, 7196, 7197, 7198, 7199, 7200
*Nset, nset=Z_Edges
   1,   2,   3,   4,   6,   8,   9,  10,  11,  12,  13,  14,  15,  16,  17,  98
 178, 179, 180, 260, 371, 372, 373, 379, 380, 381
*Elset, elset=Z_Edges
    1,    2,    3,    4,  319,  320, 1601, 1602, 1603, 1604, 1917, 1918, 1921, 1926, 1927, 1932
 1933, 1938, 1939, 1944, 7177, 7182, 7183, 7188, 7189, 7194, 7195, 7200
*Orientation, name=Ori-1
1., 0., 0., 0., 1., 0.
1, 0.
** Section: BotSec
*Solid Section, elset=FullGeom, orientation=Ori-1, material=BotMat
1.,
*End Part
**  
*Part, name=Cz
*Node
      1,         110.,           3.,  0.200000003
      2,         110.,          2.5,  0.200000003
      3,         110.,           2.,  0.200000003
      4,         110.,          1.5,  0.200000003
      5,         110.,           1.,  0.200000003
      6,         110.,          0.5,  0.200000003
      7,         110.,           0.,  0.200000003
      8,         110.,           3.,           0.
      9,         110.,          2.5,           0.
     10,         110.,           2.,           0.
     11,         110.,          1.5,           0.
     12,         110.,           1.,           0.
     13,         110.,          0.5,           0.
     14,         110.,           0.,           0.
     15,        109.5,           3.,  0.200000003
     16,        109.5,          2.5,  0.200000003
     17,        109.5,           2.,  0.200000003
     18,        109.5,          1.5,  0.200000003
     19,        109.5,           1.,  0.200000003
     20,        109.5,          0.5,  0.200000003
** ... 3074 like lines cut
*Element, type=COH3D8
   1,   22,   23,    9,    8,   15,   16,    2,    1
   2,   23,   24,   10,    9,   16,   17,    3,    2
   3,   24,   25,   11,   10,   17,   18,    4,    3
   4,   25,   26,   12,   11,   18,   19,    5,    4
   5,   26,   27,   13,   12,   19,   20,    6,    5
   6,   27,   28,   14,   13,   20,   21,    7,    6
   7,   36,   37,   23,   22,   29,   30,   16,   15
   8,   37,   38,   24,   23,   30,   31,   17,   16
   9,   38,   39,   25,   24,   31,   32,   18,   17
  10,   39,   40,   26,   25,   32,   33,   19,   18
  11,   40,   41,   27,   26,   33,   34,   20,   19
  12,   41,   42,   28,   27,   34,   35,   21,   20
  13,   50,   51,   37,   36,   43,   44,   30,   29
  14,   51,   52,   38,   37,   44,   45,   31,   30
  15,   52,   53,   39,   38,   45,   46,   32,   31
  16,   53,   54,   40,   39,   46,   47,   33,   32
  17,   54,   55,   41,   40,   47,   48,   34,   33
  18,   55,   56,   42,   41,   48,   49,   35,   34
  19,   64,   65,   51,   50,   57,   58,   44,   43
  20,   65,   66,   52,   51,   58,   59,   45,   44
** ... 1300 like lines cut
*Nset, nset=FullGeom, generate
    1,  3094,     1
*Elset, elset=FullGeom, generate
    1,  1320,     1
*Nset, nset=Top
    1,    2,    3,    4,    5,    6,    7,   15,   16,   17,   18,   19,   20,   21,   29,   30
   31,   32,   33,   34,   35,   43,   44,   45,   46,   47,   48,   49,   57,   58,   59,   60
   61,   62,   63,   71,   72,   73,   74,   75,   76,   77,   85,   86,   87,   88,   89,   90
   91,   99,  100,  101,  102,  103,  104,  105,  113,  114,  115,  116,  117,  118,  119,  127
  128,  129,  130,  131,  132,  133,  141,  142,  143,  144,  145,  146,  147,  155,  156,  157
  158,  159,  160,  161,  169,  170,  171,  172,  173,  174,  175,  183,  184,  185,  186,  187
  188,  189,  197,  198,  199,  200,  201,  202,  203,  211,  212,  213,  214,  215,  216,  217
  225,  226,  227,  228,  229,  230,  231,  239,  240,  241,  242,  243,  244,  245,  253,  254
  255,  256,  257,  258,  259,  267,  268,  269,  270,  271,  272,  273,  281,  282,  283,  284
  285,  286,  287,  295,  296,  297,  298,  299,  300,  301,  309,  310,  311,  312,  313,  314
  315,  323,  324,  325,  326,  327,  328,  329,  337,  338,  339,  340,  341,  342,  343,  351
  352,  353,  354,  355,  356,  357,  365,  366,  367,  368,  369,  370,  371,  379,  380,  381
  382,  383,  384,  385,  393,  394,  395,  396,  397,  398,  399,  407,  408,  409,  410,  411
  412,  413,  421,  422,  423,  424,  425,  426,  427,  435,  436,  437,  438,  439,  440,  441
  449,  450,  451,  452,  453,  454,  455,  463,  464,  465,  466,  467,  468,  469,  477,  478
  479,  480,  481,  482,  483,  491,  492,  493,  494,  495,  496,  497,  505,  506,  507,  508
  509,  510,  511,  519,  520,  521,  522,  523,  524,  525,  533,  534,  535,  536,  537,  538
  539,  547,  548,  549,  550,  551,  552,  553,  561,  562,  563,  564,  565,  566,  567,  575
  576,  577,  578,  579,  580,  581,  589,  590,  591,  592,  593,  594,  595,  603,  604,  605
  606,  607,  608,  609,  617,  618,  619,  620,  621,  622,  623,  631,  632,  633,  634,  635
** ... 77 like lines cut
*Elset, elset=Top, generate
    1,  1320,     1
*Nset, nset=Bot
    8,    9,   10,   11,   12,   13,   14,   22,   23,   24,   25,   26,   27,   28,   36,   37
   38,   39,   40,   41,   42,   50,   51,   52,   53,   54,   55,   56,   64,   65,   66,   67
   68,   69,   70,   78,   79,   80,   81,   82,   83,   84,   92,   93,   94,   95,   96,   97
   98,  106,  107,  108,  109,  110,  111,  112,  120,  121,  122,  123,  124,  125,  126,  134
  135,  136,  137,  138,  139,  140,  148,  149,  150,  151,  152,  153,  154,  162,  163,  164
  165,  166,  167,  168,  176,  177,  178,  179,  180,  181,  182,  190,  191,  192,  193,  194
  195,  196,  204,  205,  206,  207,  208,  209,  210,  218,  219,  220,  221,  222,  223,  224
  232,  233,  234,  235,  236,  237,  238,  246,  247,  248,  249,  250,  251,  252,  260,  261
  262,  263,  264,  265,  266,  274,  275,  276,  277,  278,  279,  280,  288,  289,  290,  291
  292,  293,  294,  302,  303,  304,  305,  306,  307,  308,  316,  317,  318,  319,  320,  321
  322,  330,  331,  332,  333,  334,  335,  336,  344,  345,  346,  347,  348,  349,  350,  358
  359,  360,  361,  362,  363,  364,  372,  373,  374,  375,  376,  377,  378,  386,  387,  388
  389,  390,  391,  392,  400,  401,  402,  403,  404,  405,  406,  414,  415,  416,  417,  418
  419,  420,  428,  429,  430,  431,  432,  433,  434,  442,  443,  444,  445,  446,  447,  448
  456,  457,  458,  459,  460,  461,  462,  470,  471,  472,  473,  474,  475,  476,  484,  485
  486,  487,  488,  489,  490,  498,  499,  500,  501,  502,  503,  504,  512,  513,  514,  515
  516,  517,  518,  526,  527,  528,  529,  530,  531,  532,  540,  541,  542,  543,  544,  545
  546,  554,  555,  556,  557,  558,  559,  560,  568,  569,  570,  571,  572,  573,  574,  582
  583,  584,  585,  586,  587,  588,  596,  597,  598,  599,  600,  601,  602,  610,  611,  612
  613,  614,  615,  616,  624,  625,  626,  627,  628,  629,  630,  638,  639,  640,  641,  642
** ... 77 like lines cut
*Elset, elset=Bot, generate
    1,  1320,     1
*Nset, nset=Front, generate
 1,  7,  1
*Elset, elset=Front, generate
 1,  6,  1
*Nset, nset=Back, generate
 3081,  3087,     1
*Elset, elset=Back, generate
 1315,  1320,     1
*Nset, nset=X_Edges
    1,    7,    8,   14,   15,   21,   22,   28,   29,   35,   36,   42,   43,   49,   50,   56
   57,   63,   64,   70,   71,   77,   78,   84,   85,   91,   92,   98,   99,  105,  106,  112
  113,  119,  120,  126,  127,  133,  134,  140,  141,  147,  148,  154,  155,  161,  162,  168
  169,  175,  176,  182,  183,  189,  190,  196,  197,  203,  204,  210,  211,  217,  218,  224
  225,  231,  232,  238,  239,  245,  246,  252,  253,  259,  260,  266,  267,  273,  274,  280
  281,  287,  288,  294,  295,  301,  302,  308,  309,  315,  316,  322,  323,  329,  330,  336
  337,  343,  344,  350,  351,  357,  358,  364,  365,  371,  372,  378,  379,  385,  386,  392
  393,  399,  400,  406,  407,  413,  414,  420,  421,  427,  428,  434,  435,  441,  442,  448
  449,  455,  456,  462,  463,  469,  470,  476,  477,  483,  484,  490,  491,  497,  498,  504
  505,  511,  512,  518,  519,  525,  526,  532,  533,  539,  540,  546,  547,  553,  554,  560
  561,  567,  568,  574,  575,  581,  582,  588,  589,  595,  596,  602,  603,  609,  610,  616
  617,  623,  624,  630,  631,  637,  638,  644,  645,  651,  652,  658,  659,  665,  666,  672
  673,  679,  680,  686,  687,  693,  694,  700,  701,  707,  708,  714,  715,  721,  722,  728
  729,  735,  736,  742,  743,  749,  750,  756,  757,  763,  764,  770,  771,  777,  778,  784
  785,  791,  792,  798,  799,  805,  806,  812,  813,  819,  820,  826,  827,  833,  834,  840
  841,  847,  848,  854,  855,  861,  862,  868,  869,  875,  876,  882,  883,  889,  890,  896
  897,  903,  904,  910,  911,  917,  918,  924,  925,  931,  932,  938,  939,  945,  946,  952
  953,  959,  960,  966,  967,  973,  974,  980,  981,  987,  988,  994,  995, 1001, 1002, 1008
 1009, 1015, 1016, 1022, 1023, 1029, 1030, 1036, 1037, 1043, 1044, 1050, 1051, 1057, 1058, 1064
 1065, 1071, 1072, 1078, 1079, 1085, 1086, 1092, 1093, 1099, 1100, 1106, 1107, 1113, 1114, 1120
** ... 36 like lines cut
*Elset, elset=X_Edges
    1,    6,    7,   12,   13,   18,   19,   24,   25,   30,   31,   36,   37,   42,   43,   48
   49,   54,   55,   60,   61,   66,   67,   72,   73,   78,   79,   84,   85,   90,   91,   96
   97,  102,  103,  108,  109,  114,  115,  120,  121,  126,  127,  132,  133,  138,  139,  144
  145,  150,  151,  156,  157,  162,  163,  168,  169,  174,  175,  180,  181,  186,  187,  192
  193,  198,  199,  204,  205,  210,  211,  216,  217,  222,  223,  228,  229,  234,  235,  240
  241,  246,  247,  252,  253,  258,  259,  264,  265,  270,  271,  276,  277,  282,  283,  288
  289,  294,  295,  300,  301,  306,  307,  312,  313,  318,  319,  324,  325,  330,  331,  336
  337,  342,  343,  348,  349,  354,  355,  360,  361,  366,  367,  372,  373,  378,  379,  384
  385,  390,  391,  396,  397,  402,  403,  408,  409,  414,  415,  420,  421,  426,  427,  432
  433,  438,  439,  444,  445,  450,  451,  456,  457,  462,  463,  468,  469,  474,  475,  480
  481,  486,  487,  492,  493,  498,  499,  504,  505,  510,  511,  516,  517,  522,  523,  528
  529,  534,  535,  540,  541,  546,  547,  552,  553,  558,  559,  564,  565,  570,  571,  576
  577,  582,  583,  588,  589,  594,  595,  600,  601,  606,  607,  612,  613,  618,  619,  624
  625,  630,  631,  636,  637,  642,  643,  648,  649,  654,  655,  660,  661,  666,  667,  672
  673,  678,  679,  684,  685,  690,  691,  696,  697,  702,  703,  708,  709,  714,  715,  720
  721,  726,  727,  732,  733,  738,  739,  744,  745,  750,  751,  756,  757,  762,  763,  768
  769,  774,  775,  780,  781,  786,  787,  792,  793,  798,  799,  804,  805,  810,  811,  816
  817,  822,  823,  828,  829,  834,  835,  840,  841,  846,  847,  852,  853,  858,  859,  864
  865,  870,  871,  876,  877,  882,  883,  888,  889,  894,  895,  900,  901,  906,  907,  912
  913,  918,  919,  924,  925,  930,  931,  936,  937,  942,  943,  948,  949,  954,  955,  960
** ... 8 like lines cut
*Nset, nset=Y_Edges
    1,    2,    3,    4,    5,    6,    7,    8,    9,   10,   11,   12,   13,   14, 3081, 3082
 3083, 3084, 3085, 3086, 3087, 3088, 3089, 3090, 3091, 3092, 3093, 3094
*Elset, elset=Y_Edges
    1,    2,    3,    4,    5,    6, 1315, 1316, 1317, 1318, 1319, 1320
*Nset, nset=Z_Edges
    1,    7,    8,   14, 3081, 3087, 3088, 3094
*Elset, elset=Z_Edges
    1,    6, 1315, 1320
** Section: CzSec
*Cohesive Section, elset=FullGeom, material=CzMat, response=TRACTION SEPARATION
, 
*End Part
**  
*Part, name=Top
*Node
      1,          40.,           3.,   2.24000001
      2,          40.,           3.,           0.
      3,           0.,           3.,         1.12
      4,           0.,           3.,           0.
      5,           0.,           3.,   2.24000001
      6,          40.,           0.,           0.
      7,           0.,           0.,           0.
      8,           0.,           0.,   2.24000001
      9,           0.,           0.,         1.12
     10,          40.,           0.,   2.24000001
     11,         150.,           3.,   2.24000001
     12,         150.,           0.,   2.24000001
     13,         150.,           0.,           0.
     14,         150.,           3.,           0.
     15,          40.,           3.,   1.67999995
     16,          40.,           3.,         1.12
     17,          40.,           3.,  0.560000002
     18,         39.5,           3.,           0.
     19,          39.,           3.,           0.
     20,         38.5,           3.,           0.
** ... 10515 like lines cut
*Element, type=C3D8
   1,  350, 2522, 6066, 1732,    1,   15, 1258,  177
   2, 2522, 2523, 6067, 6066,   15,   16, 1259, 1258
   3, 2523, 2524, 6068, 6067,   16,   17, 1260, 1259
   4, 2524,  356, 2127, 6068,   17,    2,   18, 1260
   5, 1732, 6066, 6069, 1733,  177, 1258, 1261,  176
   6, 6066, 6067, 6070, 6069, 1258, 1259, 1262, 1261
   7, 6067, 6068, 6071, 6070, 1259, 1260, 1263, 1262
   8, 6068, 2127, 2128, 6071, 1260,   18,   19, 1263
   9, 1733, 6069, 6072, 1734,  176, 1261, 1264,  175
  10, 6069, 6070, 6073, 6072, 1261, 1262, 1265, 1264
  11, 6070, 6071, 6074, 6073, 1262, 1263, 1266, 1265
  12, 6071, 2128, 2129, 6074, 1263,   19,   20, 1266
  13, 1734, 6072, 6075, 1735,  175, 1264, 1267,  174
  14, 6072, 6073, 6076, 6075, 1264, 1265, 1268, 1267
  15, 6073, 6074, 6077, 6076, 1265, 1266, 1269, 1268
  16, 6074, 2129, 2130, 6077, 1266,   20,   21, 1269
  17, 1735, 6075, 6078, 1736,  174, 1267, 1270,  173
  18, 6075, 6076, 6079, 6078, 1267, 1268, 1271, 1270
  19, 6076, 6077, 6080, 6079, 1268, 1269, 1272, 1271
  20, 6077, 2130, 2131, 6080, 1269,   21,   22, 1272
** ... 7180 like lines cut
*Nset, nset=Front
   3,   9, 361, 362, 363, 364, 365
*Elset, elset=Front
  318,  319,  638,  639,  958,  959, 1278, 1279, 1598, 1599, 1918, 1919
*Nset, nset=Back
   3,   9, 361, 362, 363, 364, 365
*Elset, elset=Back
  318,  319,  638,  639,  958,  959, 1278, 1279, 1598, 1599, 1918, 1919
*Nset, nset=Top
    1,   10,   11,   12,  346,  347,  348,  349,  350,  366,  367,  368,  369,  370,  601,  602
  603,  604,  605,  606,  607,  608,  609,  610,  611,  612,  613,  614,  615,  616,  617,  618
  619,  620,  621,  622,  623,  624,  625,  626,  627,  628,  629,  630,  631,  632,  633,  634
  635,  636,  637,  638,  639,  640,  641,  642,  643,  644,  645,  646,  647,  648,  649,  650
  651,  652,  653,  654,  655,  656,  657,  658,  659,  660,  661,  662,  663,  664,  665,  666
  667,  668,  669,  670,  671,  672,  673,  674,  675,  676,  677,  678,  679,  680,  681,  682
  683,  684,  685,  686,  687,  688,  689,  690,  691,  692,  693,  694,  695,  696,  697,  698
  699,  700,  701,  702,  703,  704,  705,  706,  707,  708,  709,  710,  711,  712,  713,  714
  715,  716,  717,  718,  719,  720,  721,  722,  723,  724,  725,  726,  727,  728,  729,  730
  731,  732,  733,  734,  735,  736,  737,  738,  739,  740,  741,  742,  743,  744,  745,  746
  747,  748,  749,  750,  751,  752,  753,  754,  755,  756,  757,  758,  759,  760,  761,  762
  763,  764,  765,  766,  767,  768,  769,  770,  771,  772,  773,  774,  775,  776,  777,  778
  779,  780,  781,  782,  783,  784,  785,  786,  787,  788,  789,  790,  791,  792,  793,  794
  795,  796,  797,  798,  799,  800,  801,  802,  803,  804,  805,  806,  807,  808,  809,  810
  811,  812,  813,  814,  815,  816,  817,  818,  819, 1039, 1040, 1041, 1042, 1043, 1044, 1045
 1046, 1047, 1048, 1049, 1050, 1051, 1052, 1053, 1054, 1055, 1056, 1057, 1058, 1059, 1060, 1061
 1062, 1063, 1064, 1065, 1066, 1067, 1068, 1069, 1070, 1071, 1072, 1073, 1074, 1075, 1076, 1077
 1078, 1079, 1080, 1081, 1082, 1083, 1084, 1085, 1086, 1087, 1088, 1089, 1090, 1091, 1092, 1093
 1094, 1095, 1096, 1097, 1098, 1099, 1100, 1101, 1102, 1103, 1104, 1105, 1106, 1107, 1108, 1109
 1110, 1111, 1112, 1113, 1114, 1115, 1116, 1117, 1118, 1119, 1120, 1121, 1122, 1123, 1124, 1125
** ... 77 like lines cut
*Elset, elset=Top
 1921, 1922, 1923, 1924, 1925, 1926, 1945, 1946, 1947, 1948, 1949, 1950, 1969, 1970, 1971, 1972
 1973, 1974, 1993, 1994, 1995, 1996, 1997, 1998, 2017, 2018, 2019, 2020, 2021, 2022, 2041, 2042
 2043, 2044, 2045, 2046, 2065, 2066, 2067, 2068, 2069, 2070, 2089, 2090, 2091, 2092, 2093, 2094
 2113, 2114, 2115, 2116, 2117, 2118, 2137, 2138, 2139, 2140, 2141, 2142, 2161, 2162, 2163, 2164
 2165, 2166, 2185, 2186, 2187, 2188, 2189, 2190, 2209, 2210, 2211, 2212, 2213, 2214, 2233, 2234
 2235, 2236, 2237, 2238, 2257, 2258, 2259, 2260, 2261, 2262, 2281, 2282, 2283, 2284, 2285, 2286
 2305, 2306, 2307, 2308, 2309, 2310, 2329, 2330, 2331, 2332, 2333, 2334, 2353, 2354, 2355, 2356
 2357, 2358, 2377, 2378, 2379, 2380, 2381, 2382, 2401, 2402, 2403, 2404, 2405, 2406, 2425, 2426
 2427, 2428, 2429, 2430, 2449, 2450, 2451, 2452, 2453, 2454, 2473, 2474, 2475, 2476, 2477, 2478
 2497, 2498, 2499, 2500, 2501, 2502, 2521, 2522, 2523, 2524, 2525, 2526, 2545, 2546, 2547, 2548
 2549, 2550, 2569, 2570, 2571, 2572, 2573, 2574, 2593, 2594, 2595, 2596, 2597, 2598, 2617, 2618
 2619, 2620, 2621, 2622, 2641, 2642, 2643, 2644, 2645, 2646, 2665, 2666, 2667, 2668, 2669, 2670
 2689, 2690, 2691, 2692, 2693, 2694, 2713, 2714, 2715, 2716, 2717, 2718, 2737, 2738, 2739, 2740
 2741, 2742, 2761, 2762, 2763, 2764, 2765, 2766, 2785, 2786, 2787, 2788, 2789, 2790, 2809, 2810
 2811, 2812, 2813, 2814, 2833, 2834, 2835, 2836, 2837, 2838, 2857, 2858, 2859, 2860, 2861, 2862
 2881, 2882, 2883, 2884, 2885, 2886, 2905, 2906, 2907, 2908, 2909, 2910, 2929, 2930, 2931, 2932
 2933, 2934, 2953, 2954, 2955, 2956, 2957, 2958, 2977, 2978, 2979, 2980, 2981, 2982, 3001, 3002
 3003, 3004, 3005, 3006, 3025, 3026, 3027, 3028, 3029, 3030, 3049, 3050, 3051, 3052, 3053, 3054
 3073, 3074, 3075, 3076, 3077, 3078, 3097, 3098, 3099, 3100, 3101, 3102, 3121, 3122, 3123, 3124
 3125, 3126, 3145, 3146, 3147, 3148, 3149, 3150, 3169, 3170, 3171, 3172, 3173, 3174, 3193, 3194
** ... 63 like lines cut
*Nset, nset=Bot
    2,    6,   13,   14,  356,  357,  358,  359,  360,  374,  375,  376,  377,  378,  382,  383
  384,  385,  386,  387,  388,  389,  390,  391,  392,  393,  394,  395,  396,  397,  398,  399
  400,  401,  402,  403,  404,  405,  406,  407,  408,  409,  410,  411,  412,  413,  414,  415
  416,  417,  418,  419,  420,  421,  422,  423,  424,  425,  426,  427,  428,  429,  430,  431
  432,  433,  434,  435,  436,  437,  438,  439,  440,  441,  442,  443,  444,  445,  446,  447
  448,  449,  450,  451,  452,  453,  454,  455,  456,  457,  458,  459,  460,  461,  462,  463
  464,  465,  466,  467,  468,  469,  470,  471,  472,  473,  474,  475,  476,  477,  478,  479
  480,  481,  482,  483,  484,  485,  486,  487,  488,  489,  490,  491,  492,  493,  494,  495
  496,  497,  498,  499,  500,  501,  502,  503,  504,  505,  506,  507,  508,  509,  510,  511
  512,  513,  514,  515,  516,  517,  518,  519,  520,  521,  522,  523,  524,  525,  526,  527
  528,  529,  530,  531,  532,  533,  534,  535,  536,  537,  538,  539,  540,  541,  542,  543
  544,  545,  546,  547,  548,  549,  550,  551,  552,  553,  554,  555,  556,  557,  558,  559
  560,  561,  562,  563,  564,  565,  566,  567,  568,  569,  570,  571,  572,  573,  574,  575
  576,  577,  578,  579,  580,  581,  582,  583,  584,  585,  586,  587,  588,  589,  590,  591
  592,  593,  594,  595,  596,  597,  598,  599,  600,  820,  821,  822,  823,  824,  825,  826
  827,  828,  829,  830,  831,  832,  833,  834,  835,  836,  837,  838,  839,  840,  841,  842
  843,  844,  845,  846,  847,  848,  849,  850,  851,  852,  853,  854,  855,  856,  857,  858
  859,  860,  861,  862,  863,  864,  865,  866,  867,  868,  869,  870,  871,  872,  873,  874
  875,  876,  877,  878,  879,  880,  881,  882,  883,  884,  885,  886,  887,  888,  889,  890
  891,  892,  893,  894,  895,  896,  897,  898,  899,  900,  901,  902,  903,  904,  905,  906
** ... 77 like lines cut
*Elset, elset=Bot
 1939, 1940, 1941, 1942, 1943, 1944, 1963, 1964, 1965, 1966, 1967, 1968, 1987, 1988, 1989, 1990
 1991, 1992, 2011, 2012, 2013, 2014, 2015, 2016, 2035, 2036, 2037, 2038, 2039, 2040, 2059, 2060
 2061, 2062, 2063, 2064, 2083, 2084, 2085, 2086, 2087, 2088, 2107, 2108, 2109, 2110, 2111, 2112
 2131, 2132, 2133, 2134, 2135, 2136, 2155, 2156, 2157, 2158, 2159, 2160, 2179, 2180, 2181, 2182
 2183, 2184, 2203, 2204, 2205, 2206, 2207, 2208, 2227, 2228, 2229, 2230, 2231, 2232, 2251, 2252
 2253, 2254, 2255, 2256, 2275, 2276, 2277, 2278, 2279, 2280, 2299, 2300, 2301, 2302, 2303, 2304
 2323, 2324, 2325, 2326, 2327, 2328, 2347, 2348, 2349, 2350, 2351, 2352, 2371, 2372, 2373, 2374
 2375, 2376, 2395, 2396, 2397, 2398, 2399, 2400, 2419, 2420, 2421, 2422, 2423, 2424, 2443, 2444
 2445, 2446, 2447, 2448, 2467, 2468, 2469, 2470, 2471, 2472, 2491, 2492, 2493, 2494, 2495, 2496
 2515, 2516, 2517, 2518, 2519, 2520, 2539, 2540, 2541, 2542, 2543, 2544, 2563, 2564, 2565, 2566
 2567, 2568, 2587, 2588, 2589, 2590, 2591, 2592, 2611, 2612, 2613, 2614, 2615, 2616, 2635, 2636
 2637, 2638, 2639, 2640, 2659, 2660, 2661, 2662, 2663, 2664, 2683, 2684, 2685, 2686, 2687, 2688
 2707, 2708, 2709, 2710, 2711, 2712, 2731, 2732, 2733, 2734, 2735, 2736, 2755, 2756, 2757, 2758
 2759, 2760, 2779, 2780, 2781, 2782, 2783, 2784, 2803, 2804, 2805, 2806, 2807, 2808, 2827, 2828
 2829, 2830, 2831, 2832, 2851, 2852, 2853, 2854, 2855, 2856, 2875, 2876, 2877, 2878, 2879, 2880
 2899, 2900, 2901, 2902, 2903, 2904, 2923, 2924, 2925, 2926, 2927, 2928, 2947, 2948, 2949, 2950
 2951, 2952, 2971, 2972, 2973, 2974, 2975, 2976, 2995, 2996, 2997, 2998, 2999, 3000, 3019, 3020
 3021, 3022, 3023, 3024, 3043, 3044, 3045, 3046, 3047, 3048, 3067, 3068, 3069, 3070, 3071, 3072
 3091, 3092, 3093, 3094, 3095, 3096, 3115, 3116, 3117, 3118, 3119, 3120, 3139, 3140, 3141, 3142
 3143, 3144, 3163, 3164, 3165, 3166, 3167, 3168, 3187, 3188, 3189, 3190, 3191, 3192, 3211, 3212
** ... 63 like lines cut
*Nset, nset=FullGeom, generate
     1,  10535,      1
*Elset, elset=FullGeom, generate
    1,  7200,     1
*Nset, nset=X_Edges
    1,    2,    4,    5,    6,    7,    8,   10,   11,   12,   13,   14,   18,   19,   20,   21
   22,   23,   24,   25,   26,   27,   28,   29,   30,   31,   32,   33,   34,   35,   36,   37
   38,   39,   40,   41,   42,   43,   44,   45,   46,   47,   48,   49,   50,   51,   52,   53
   54,   55,   56,   57,   58,   59,   60,   61,   62,   63,   64,   65,   66,   67,   68,   69
   70,   71,   72,   73,   74,   75,   76,   77,   78,   79,   80,   81,   82,   83,   84,   85
   86,   87,   88,   89,   90,   91,   92,   93,   94,   95,   96,   99,  100,  101,  102,  103
  104,  105,  106,  107,  108,  109,  110,  111,  112,  113,  114,  115,  116,  117,  118,  119
  120,  121,  122,  123,  124,  125,  126,  127,  128,  129,  130,  131,  132,  133,  134,  135
  136,  137,  138,  139,  140,  141,  142,  143,  144,  145,  146,  147,  148,  149,  150,  151
  152,  153,  154,  155,  156,  157,  158,  159,  160,  161,  162,  163,  164,  165,  166,  167
  168,  169,  170,  171,  172,  173,  174,  175,  176,  177,  181,  182,  183,  184,  185,  186
  187,  188,  189,  190,  191,  192,  193,  194,  195,  196,  197,  198,  199,  200,  201,  202
  203,  204,  205,  206,  207,  208,  209,  210,  211,  212,  213,  214,  215,  216,  217,  218
  219,  220,  221,  222,  223,  224,  225,  226,  227,  228,  229,  230,  231,  232,  233,  234
  235,  236,  237,  238,  239,  240,  241,  242,  243,  244,  245,  246,  247,  248,  249,  250
  251,  252,  253,  254,  255,  256,  257,  258,  259,  262,  263,  264,  265,  266,  267,  268
  269,  270,  271,  272,  273,  274,  275,  276,  277,  278,  279,  280,  281,  282,  283,  284
  285,  286,  287,  288,  289,  290,  291,  292,  293,  294,  295,  296,  297,  298,  299,  300
  301,  302,  303,  304,  305,  306,  307,  308,  309,  310,  311,  312,  313,  314,  315,  316
  317,  318,  319,  320,  321,  322,  323,  324,  325,  326,  327,  328,  329,  330,  331,  332
** ... 56 like lines cut
*Elset, elset=X_Edges
    1,    4,    5,    8,    9,   12,   13,   16,   17,   20,   21,   24,   25,   28,   29,   32
   33,   36,   37,   40,   41,   44,   45,   48,   49,   52,   53,   56,   57,   60,   61,   64
   65,   68,   69,   72,   73,   76,   77,   80,   81,   84,   85,   88,   89,   92,   93,   96
   97,  100,  101,  104,  105,  108,  109,  112,  113,  116,  117,  120,  121,  124,  125,  128
  129,  132,  133,  136,  137,  140,  141,  144,  145,  148,  149,  152,  153,  156,  157,  160
  161,  164,  165,  168,  169,  172,  173,  176,  177,  180,  181,  184,  185,  188,  189,  192
  193,  196,  197,  200,  201,  204,  205,  208,  209,  212,  213,  216,  217,  220,  221,  224
  225,  228,  229,  232,  233,  236,  237,  240,  241,  244,  245,  248,  249,  252,  253,  256
  257,  260,  261,  264,  265,  268,  269,  272,  273,  276,  277,  280,  281,  284,  285,  288
  289,  292,  293,  296,  297,  300,  301,  304,  305,  308,  309,  312,  313,  316,  317,  320
 1601, 1604, 1605, 1608, 1609, 1612, 1613, 1616, 1617, 1620, 1621, 1624, 1625, 1628, 1629, 1632
 1633, 1636, 1637, 1640, 1641, 1644, 1645, 1648, 1649, 1652, 1653, 1656, 1657, 1660, 1661, 1664
 1665, 1668, 1669, 1672, 1673, 1676, 1677, 1680, 1681, 1684, 1685, 1688, 1689, 1692, 1693, 1696
 1697, 1700, 1701, 1704, 1705, 1708, 1709, 1712, 1713, 1716, 1717, 1720, 1721, 1724, 1725, 1728
 1729, 1732, 1733, 1736, 1737, 1740, 1741, 1744, 1745, 1748, 1749, 1752, 1753, 1756, 1757, 1760
 1761, 1764, 1765, 1768, 1769, 1772, 1773, 1776, 1777, 1780, 1781, 1784, 1785, 1788, 1789, 1792
 1793, 1796, 1797, 1800, 1801, 1804, 1805, 1808, 1809, 1812, 1813, 1816, 1817, 1820, 1821, 1824
 1825, 1828, 1829, 1832, 1833, 1836, 1837, 1840, 1841, 1844, 1845, 1848, 1849, 1852, 1853, 1856
 1857, 1860, 1861, 1864, 1865, 1868, 1869, 1872, 1873, 1876, 1877, 1880, 1881, 1884, 1885, 1888
 1889, 1892, 1893, 1896, 1897, 1900, 1901, 1904, 1905, 1908, 1909, 1912, 1913, 1916, 1917, 1920
** ... 55 like lines cut
*Nset, nset=Y_Edges
   1,   2,   4,   5,   6,   7,   8,  10,  11,  12,  13,  14, 341, 342, 343, 344
 345, 346, 347, 348, 349, 350, 351, 352, 353, 354, 355, 356, 357, 358, 359, 360
 366, 367, 368, 369, 370, 374, 375, 376, 377, 378
*Elset, elset=Y_Edges
    1,    4,  317,  320,  321,  324,  637,  640,  641,  644,  957,  960,  961,  964, 1277, 1280
 1281, 1284, 1597, 1600, 1601, 1604, 1917, 1920, 1921, 1922, 1923, 1924, 1925, 1926, 1939, 1940
 1941, 1942, 1943, 1944, 7177, 7178, 7179, 7180, 7181, 7182, 7195, 7196, 7197, 7198, 7199, 7200
*Nset, nset=Z_Edges
   1,   2,   3,   4,   6,   8,   9,  10,  11,  12,  13,  14,  15,  16,  17,  98
 178, 179, 180, 260, 371, 372, 373, 379, 380, 381
*Elset, elset=Z_Edges
    1,    2,    3,    4,  319,  320, 1601, 1602, 1603, 1604, 1917, 1918, 1921, 1926, 1927, 1932
 1933, 1938, 1939, 1944, 7177, 7182, 7183, 7188, 7189, 7194, 7195, 7200
*Orientation, name=Ori-1
1., 0., 0., 0., 1., 0.
1, 0.
** Section: TopSec
*Solid Section, elset=FullGeom, orientation=Ori-1, material=TopMat
1.,
*End Part
**  
**
** ASSEMBLY
**
*Assembly, name=Assembly
**  
*Instance, name=ceInst, part=Cz
         40.,           0.,         2.24
*End Instance
**  
*Instance, name=pTop, part=Top
          0.,           0.,         2.44
*End Instance
**  
*Instance, name=pBot, part=Bot
*End Instance
**  
*Node
      1,           0.,           0.,   4.67999983
*Node
      2,           0.,           0.,           0.
*Nset, nset=FixedEnd, instance=pBot
   3,   9, 361, 362, 363, 364, 365
*Elset, elset=FixedEnd, instance=pBot
  318,  319,  638,  639,  958,  959, 1278, 1279, 1598, 1599, 1918, 1919
*Nset, nset=FixedPoint
 2,
*Nset, nset=LoadEnd, instance=pTop
   3,   9, 361, 362, 363, 364, 365
*Elset, elset=LoadEnd, instance=pTop
  318,  319,  638,  639,  958,  959, 1278, 1279, 1598, 1599, 1918, 1919
*Nset, nset=LoadPoint
 1,
*Surface, type=NODE, name=ceInst_Top_CNS_, internal
ceInst.Top, 1.
*Surface, type=NODE, name=pTop_Bot_CNS_, internal
pTop.Bot, 1.
*Surface, type=NODE, name=ceInst_Bot_CNS_, internal
ceInst.Bot, 1.
*Surface, type=NODE, name=pBot_Top_CNS_, internal
pBot.Top, 1.
*Surface, type=NODE, name=FixedEnd_CNS_, internal
FixedEnd, 1.
*Surface, type=NODE, name=LoadEnd_CNS_, internal
LoadEnd, 1.
** Constraint: Constraint-1
*Tie, name=Constraint-1, adjust=no, no rotation, type=NODE TO SURFACE
pTop_Bot_CNS_, ceInst_Top_CNS_
** Constraint: Constraint-2
*Tie, name=Constraint-2, adjust=no, no rotation, type=NODE TO SURFACE
pBot_Top_CNS_, ceInst_Bot_CNS_
** Constraint: Constraint-11
*Coupling, constraint name=Constraint-11, ref node=FixedPoint, surface=FixedEnd_CNS_
*Kinematic
** Constraint: Constraint-12
*Coupling, constraint name=Constraint-12, ref node=LoadPoint, surface=LoadEnd_CNS_
*Kinematic
*End Assembly
** 
** MATERIALS
** 
*Material, name=BotMat
*Elastic, type=ENGINEERING CONSTANTS
140000.,8819.,8819., 0.34, 0.34, 0.38,4315.,4315.
3200.,
*Material, name=CzMat
*Damage Initiation, criterion=QUADS
18., 48.24, 48.24
*Damage Evolution, type=ENERGY, mixed mode behavior=BK, power=4.
 0.71, 5.1, 5.1
*Elastic, type=TRACTION
 1e+06, 1e+06, 1e+06
*Material, name=TopMat
*Elastic, type=ENGINEERING CONSTANTS
140000.,8819.,8819., 0.34, 0.34, 0.38,4315.,4315.
3200.,
** ----------------------------------------------------------------
** 
** STEP: Step-1
** 
*Step, name=Step-1, nlgeom=YES, inc=1000000000
*Static
0.001, 1., 1e-15, 0.01
** 
** BOUNDARY CONDITIONS
** 
** Name: BC-1 Type: Displacement/Rotation
*Boundary
FixedPoint, 1, 1
FixedPoint, 2, 2
FixedPoint, 3, 3, -3.
FixedPoint, 4, 4
FixedPoint, 6, 6
** Name: BC-2 Type: Displacement/Rotation
*Boundary
LoadPoint, 1, 1
LoadPoint, 2, 2
LoadPoint, 3, 3, 3.
LoadPoint, 4, 4
LoadPoint, 6, 6
** 
** CONTROLS
** 
*Controls, reset
*Controls, parameters=time incrementation
, , , , , , , 15, , , 
** 
** OUTPUT REQUESTS
** 
*Restart, write, frequency=0
** 
** FIELD OUTPUT: F-Output-1
** 
*Output, field, frequency=10
*Node Output
RF, U
*Element Output, directions=YES
S, 
** 
** HISTORY OUTPUT: H-Output-1
** 
*Output, history, time interval=0.01
*Node Output, nset=LoadPoint
RT, UT
*End Step
