*Heading
*Preprint, echo=NO, model=NO, history=NO, contact=NO
*Part, name=Bot
*Node
      1,          40.,           3.,   2.24000001
      2,          40.,           3.,           0.
      3,           0.,           3.,         1.12
      4,           0.,           3.,           0.
      5,           0.,           3.,   2.24000001
      6,          40.,           0.,           0.
      7,           0.,           0.,           0.
      8,           0.,           0.,   2.24000001
      9,           0.,           0.,         1.12
     10,          40.,           0.,   2.24000001
     11,         150.,           3.,   2.24000001
     12,         150.,           0.,   2.24000001
     13,         150.,           0.,           0.
     14,         150.,           3.,           0.
     15,          40.,           3.,   1.67999995
     16,          40.,           3.,         1.12
     17,          40.,           3.,  0.560000002
     18,          35.,           3.,           0.
     19,          30.,           3.,           0.
     20,          25.,           3.,           0.
** ... 600 like lines cut
*Element, type=C3D8
 1,  56, 227, 453, 199,   1,  15, 157,  33
 2, 227, 228, 454, 453,  15,  16, 158, 157
 3, 228, 229, 455, 454,  16,  17, 159, 158
 4, 229,  59, 213, 455,  17,   2,  18, 159
 5, 199, 453, 456, 200,  33, 157, 160,  32
 6, 453, 454, 457, 456, 157, 158, 161, 160
 7, 454, 455, 458, 457, 158, 159, 162, 161
 8, 455, 213, 214, 458, 159,  18,  19, 162
 9, 200, 456, 459, 201,  32, 160, 163,  31
10, 456, 457, 460, 459, 160, 161, 164, 163
11, 457, 458, 461, 460, 161, 162, 165, 164
12, 458, 214, 215, 461, 162,  19,  20, 165
13, 201, 459, 462, 202,  31, 163, 166,  30
14, 459, 460, 463, 462, 163, 164, 167, 166
15, 460, 461, 464, 463, 164, 165, 168, 167
16, 461, 215, 216, 464, 165,  20,  21, 168
17, 202, 462, 465, 203,  30, 166, 169,  29
18, 462, 463, 466, 465, 166, 167, 170, 169
19, 463, 464, 467, 466, 167, 168, 171, 170
20, 464, 216, 217, 467, 168,  21,  22, 171
** ... 340 like lines cut
*Nset, nset=Front
  3,  9, 61, 62
*Elset, elset=Front
 30, 31, 62, 63, 94, 95
*Nset, nset=Back
  3,  9, 61, 62
*Elset, elset=Back
 30, 31, 62, 63, 94, 95
*Nset, nset=Top
   1,  10,  11,  12,  55,  56,  63,  64,  94,  95,  96,  97,  98,  99, 100, 101
 102, 103, 104, 105, 106, 107, 108, 109, 110, 111, 112, 113, 114, 136, 137, 138
 139, 140, 141, 142, 143, 144, 145, 146, 147, 148, 149, 150, 151, 152, 153, 154
 155, 156, 369, 370, 371, 372, 373, 374, 375, 376, 377, 378, 379, 380, 381, 382
 383, 384, 385, 386, 387, 388, 389, 390, 391, 392, 393, 394, 395, 396, 397, 398
 399, 400, 401, 402, 403, 404, 405, 406, 407, 408, 409, 410
*Elset, elset=Top
  97,  98,  99, 109, 110, 111, 121, 122, 123, 133, 134, 135, 145, 146, 147, 157
 158, 159, 169, 170, 171, 181, 182, 183, 193, 194, 195, 205, 206, 207, 217, 218
 219, 229, 230, 231, 241, 242, 243, 253, 254, 255, 265, 266, 267, 277, 278, 279
 289, 290, 291, 301, 302, 303, 313, 314, 315, 325, 326, 327, 337, 338, 339, 349
 350, 351
*Nset, nset=Bot
   2,   6,  13,  14,  59,  60,  68,  69,  73,  74,  75,  76,  77,  78,  79,  80
  81,  82,  83,  84,  85,  86,  87,  88,  89,  90,  91,  92,  93, 115, 116, 117
 118, 119, 120, 121, 122, 123, 124, 125, 126, 127, 128, 129, 130, 131, 132, 133
 134, 135, 411, 412, 413, 414, 415, 416, 417, 418, 419, 420, 421, 422, 423, 424
 425, 426, 427, 428, 429, 430, 431, 432, 433, 434, 435, 436, 437, 438, 439, 440
 441, 442, 443, 444, 445, 446, 447, 448, 449, 450, 451, 452
*Elset, elset=Bot
 106, 107, 108, 118, 119, 120, 130, 131, 132, 142, 143, 144, 154, 155, 156, 166
 167, 168, 178, 179, 180, 190, 191, 192, 202, 203, 204, 214, 215, 216, 226, 227
 228, 238, 239, 240, 250, 251, 252, 262, 263, 264, 274, 275, 276, 286, 287, 288
 298, 299, 300, 310, 311, 312, 322, 323, 324, 334, 335, 336, 346, 347, 348, 358
 359, 360
*Nset, nset=FullGeom, generate
   1,  620,    1
*Elset, elset=FullGeom, generate
   1,  360,    1
*Nset, nset=X_Edges
   1,   2,   4,   5,   6,   7,   8,  10,  11,  12,  13,  14,  18,  19,  20,  21
  22,  23,  24,  27,  28,  29,  30,  31,  32,  33,  37,  38,  39,  40,  41,  42
  43,  46,  47,  48,  49,  50,  51,  52,  73,  74,  75,  76,  77,  78,  79,  80
  81,  82,  83,  84,  85,  86,  87,  88,  89,  90,  91,  92,  93,  94,  95,  96
  97,  98,  99, 100, 101, 102, 103, 104, 105, 106, 107, 108, 109, 110, 111, 112
 113, 114, 115, 116, 117, 118, 119, 120, 121, 122, 123, 124, 125, 126, 127, 128
 129, 130, 131, 132, 133, 134, 135, 136, 137, 138, 139, 140, 141, 142, 143, 144
 145, 146, 147, 148, 149, 150, 151, 152, 153, 154, 155, 156
*Elset, elset=X_Edges
   1,   4,   5,   8,   9,  12,  13,  16,  17,  20,  21,  24,  25,  28,  29,  32
  65,  68,  69,  72,  73,  76,  77,  80,  81,  84,  85,  88,  89,  92,  93,  96
  97,  99, 106, 108, 109, 111, 118, 120, 121, 123, 130, 132, 133, 135, 142, 144
 145, 147, 154, 156, 157, 159, 166, 168, 169, 171, 178, 180, 181, 183, 190, 192
 193, 195, 202, 204, 205, 207, 214, 216, 217, 219, 226, 228, 229, 231, 238, 240
 241, 243, 250, 252, 253, 255, 262, 264, 265, 267, 274, 276, 277, 279, 286, 288
 289, 291, 298, 300, 301, 303, 310, 312, 313, 315, 322, 324, 325, 327, 334, 336
 337, 339, 346, 348, 349, 351, 358, 360
*Nset, nset=Y_Edges
  1,  2,  4,  5,  6,  7,  8, 10, 11, 12, 13, 14, 53, 54, 55, 56
 57, 58, 59, 60, 63, 64, 68, 69
*Elset, elset=Y_Edges
   1,   4,  29,  32,  33,  36,  61,  64,  65,  68,  93,  96,  97,  98,  99, 106
 107, 108, 349, 350, 351, 358, 359, 360
*Nset, nset=Z_Edges
  1,  2,  3,  4,  6,  8,  9, 10, 11, 12, 13, 14, 15, 16, 17, 26
 34, 35, 36, 44, 65, 66, 67, 70, 71, 72
*Elset, elset=Z_Edges
   1,   2,   3,   4,  31,  32,  65,  66,  67,  68,  93,  94,  97,  99, 100, 102
 103, 105, 106, 108, 349, 351, 352, 354, 355, 357, 358, 360
*Orientation, name=Ori-1
1., 0., 0., 0., 1., 0.
1, 0.
*Solid Section, elset=FullGeom, orientation=Ori-1, material=BotMat
1.,
*End Part
*Part, name=Cz
*Node
      1,         110.,           3.,  0.200000003
      2,         110.,           2.,  0.200000003
      3,         110.,           1.,  0.200000003
      4,         110.,           0.,  0.200000003
      5,         110.,           3.,           0.
      6,         110.,           2.,           0.
      7,         110.,           1.,           0.
      8,         110.,           0.,           0.
      9,         105.,           3.,  0.200000003
     10,         105.,           2.,  0.200000003
     11,         105.,           1.,  0.200000003
     12,         105.,           0.,  0.200000003
     13,         105.,           3.,           0.
     14,         105.,           2.,           0.
     15,         105.,           1.,           0.
     16,         105.,           0.,           0.
     17,         100.,           3.,  0.200000003
     18,         100.,           2.,  0.200000003
     19,         100.,           1.,  0.200000003
     20,         100.,           0.,  0.200000003
** ... 164 like lines cut
*USER ELEMENT, NODES=8, Type= U1, PROPERTIES=6, COORDINATES=3,
 VARIABLES=21
 1, 2, 3
*UEL PROPERTY,  elset=FullGeom
 2490,18,48.24,0.51,5.1,4,4
*ELEMENT, TYPE=U1, elset=FullGeom
 1,  13,  14,   6,   5,   9,  10,   2,   1
 2,  14,  15,   7,   6,  10,  11,   3,   2
 3,  15,  16,   8,   7,  11,  12,   4,   3
 4,  21,  22,  14,  13,  17,  18,  10,   9
 5,  22,  23,  15,  14,  18,  19,  11,  10
 6,  23,  24,  16,  15,  19,  20,  12,  11
 7,  29,  30,  22,  21,  25,  26,  18,  17
 8,  30,  31,  23,  22,  26,  27,  19,  18
 9,  31,  32,  24,  23,  27,  28,  20,  19
10,  37,  38,  30,  29,  33,  34,  26,  25
11,  38,  39,  31,  30,  34,  35,  27,  26
12,  39,  40,  32,  31,  35,  36,  28,  27
13,  45,  46,  38,  37,  41,  42,  34,  33
14,  46,  47,  39,  38,  42,  43,  35,  34
15,  47,  48,  40,  39,  43,  44,  36,  35
16,  53,  54,  46,  45,  49,  50,  42,  41
17,  54,  55,  47,  46,  50,  51,  43,  42
18,  55,  56,  48,  47,  51,  52,  44,  43
19,  61,  62,  54,  53,  57,  58,  50,  49
20,  62,  63,  55,  54,  58,  59,  51,  50
** ... 46 like lines cut
*Nset, nset=FullGeom, generate
   1,  184,    1
*Elset, elset=FullGeom, generate
  1,  66,   1
*Nset, nset=Top
   1,   2,   3,   4,   9,  10,  11,  12,  17,  18,  19,  20,  25,  26,  27,  28
  33,  34,  35,  36,  41,  42,  43,  44,  49,  50,  51,  52,  57,  58,  59,  60
  65,  66,  67,  68,  73,  74,  75,  76,  81,  82,  83,  84,  89,  90,  91,  92
  97,  98,  99, 100, 105, 106, 107, 108, 113, 114, 115, 116, 121, 122, 123, 124
 129, 130, 131, 132, 137, 138, 139, 140, 145, 146, 147, 148, 153, 154, 155, 156
 161, 162, 163, 164, 169, 170, 171, 172, 177, 178, 179, 180
*Elset, elset=Top, generate
  1,  66,   1
*Nset, nset=Bot
   5,   6,   7,   8,  13,  14,  15,  16,  21,  22,  23,  24,  29,  30,  31,  32
  37,  38,  39,  40,  45,  46,  47,  48,  53,  54,  55,  56,  61,  62,  63,  64
  69,  70,  71,  72,  77,  78,  79,  80,  85,  86,  87,  88,  93,  94,  95,  96
 101, 102, 103, 104, 109, 110, 111, 112, 117, 118, 119, 120, 125, 126, 127, 128
 133, 134, 135, 136, 141, 142, 143, 144, 149, 150, 151, 152, 157, 158, 159, 160
 165, 166, 167, 168, 173, 174, 175, 176, 181, 182, 183, 184
*Elset, elset=Bot, generate
  1,  66,   1
*Nset, nset=Front, generate
 1,  4,  1
*Elset, elset=Front, generate
 1,  3,  1
*Nset, nset=Back, generate
 177,  180,    1
*Elset, elset=Back, generate
 64,  66,   1
*Nset, nset=X_Edges
   1,   4,   5,   8,   9,  12,  13,  16,  17,  20,  21,  24,  25,  28,  29,  32
  33,  36,  37,  40,  41,  44,  45,  48,  49,  52,  53,  56,  57,  60,  61,  64
  65,  68,  69,  72,  73,  76,  77,  80,  81,  84,  85,  88,  89,  92,  93,  96
  97, 100, 101, 104, 105, 108, 109, 112, 113, 116, 117, 120, 121, 124, 125, 128
 129, 132, 133, 136, 137, 140, 141, 144, 145, 148, 149, 152, 153, 156, 157, 160
 161, 164, 165, 168, 169, 172, 173, 176, 177, 180, 181, 184
*Elset, elset=X_Edges
  1,  3,  4,  6,  7,  9, 10, 12, 13, 15, 16, 18, 19, 21, 22, 24
 25, 27, 28, 30, 31, 33, 34, 36, 37, 39, 40, 42, 43, 45, 46, 48
 49, 51, 52, 54, 55, 57, 58, 60, 61, 63, 64, 66
*Nset, nset=Y_Edges
   1,   2,   3,   4,   5,   6,   7,   8, 177, 178, 179, 180, 181, 182, 183, 184
*Elset, elset=Y_Edges
  1,  2,  3, 64, 65, 66
*Nset, nset=Z_Edges
   1,   4,   5,   8, 177, 180, 181, 184
*Elset, elset=Z_Edges
  1,  3, 64, 66
*End Part
*Part, name=Top
*Node
      1,          40.,           3.,   2.24000001
      2,          40.,           3.,           0.
      3,           0.,           3.,         1.12
      4,           0.,           3.,           0.
      5,           0.,           3.,   2.24000001
      6,          40.,           0.,           0.
      7,           0.,           0.,           0.
      8,           0.,           0.,   2.24000001
      9,           0.,           0.,         1.12
     10,          40.,           0.,   2.24000001
     11,         150.,           3.,   2.24000001
     12,         150.,           0.,   2.24000001
     13,         150.,           0.,           0.
     14,         150.,           3.,           0.
     15,          40.,           3.,   1.67999995
     16,          40.,           3.,         1.12
     17,          40.,           3.,  0.560000002
     18,          35.,           3.,           0.
     19,          30.,           3.,           0.
     20,          25.,           3.,           0.
** ... 600 like lines cut
*Element, type=C3D8
 1,  56, 227, 453, 199,   1,  15, 157,  33
 2, 227, 228, 454, 453,  15,  16, 158, 157
 3, 228, 229, 455, 454,  16,  17, 159, 158
 4, 229,  59, 213, 455,  17,   2,  18, 159
 5, 199, 453, 456, 200,  33, 157, 160,  32
 6, 453, 454, 457, 456, 157, 158, 161, 160
 7, 454, 455, 458, 457, 158, 159, 162, 161
 8, 455, 213, 214, 458, 159,  18,  19, 162
 9, 200, 456, 459, 201,  32, 160, 163,  31
10, 456, 457, 460, 459, 160, 161, 164, 163
11, 457, 458, 461, 460, 161, 162, 165, 164
12, 458, 214, 215, 461, 162,  19,  20, 165
13, 201, 459, 462, 202,  31, 163, 166,  30
14, 459, 460, 463, 462, 163, 164, 167, 166
15, 460, 461, 464, 463, 164, 165, 168, 167
16, 461, 215, 216, 464, 165,  20,  21, 168
17, 202, 462, 465, 203,  30, 166, 169,  29
18, 462, 463, 466, 465, 166, 167, 170, 169
19, 463, 464, 467, 466, 167, 168, 171, 170
20, 464, 216, 217, 467, 168,  21,  22, 171
** ... 340 like lines cut
*Nset, nset=Front
  3,  9, 61, 62
*Elset, elset=Front
 30, 31, 62, 63, 94, 95
*Nset, nset=Back
  3,  9, 61, 62
*Elset, elset=Back
 30, 31, 62, 63, 94, 95
*Nset, nset=Top
   1,  10,  11,  12,  55,  56,  63,  64,  94,  95,  96,  97,  98,  99, 100, 101
 102, 103, 104, 105, 106, 107, 108, 109, 110, 111, 112, 113, 114, 136, 137, 138
 139, 140, 141, 142, 143, 144, 145, 146, 147, 148, 149, 150, 151, 152, 153, 154
 155, 156, 369, 370, 371, 372, 373, 374, 375, 376, 377, 378, 379, 380, 381, 382
 383, 384, 385, 386, 387, 388, 389, 390, 391, 392, 393, 394, 395, 396, 397, 398
 399, 400, 401, 402, 403, 404, 405, 406, 407, 408, 409, 410
*Elset, elset=Top
  97,  98,  99, 109, 110, 111, 121, 122, 123, 133, 134, 135, 145, 146, 147, 157
 158, 159, 169, 170, 171, 181, 182, 183, 193, 194, 195, 205, 206, 207, 217, 218
 219, 229, 230, 231, 241, 242, 243, 253, 254, 255, 265, 266, 267, 277, 278, 279
 289, 290, 291, 301, 302, 303, 313, 314, 315, 325, 326, 327, 337, 338, 339, 349
 350, 351
*Nset, nset=Bot
   2,   6,  13,  14,  59,  60,  68,  69,  73,  74,  75,  76,  77,  78,  79,  80
  81,  82,  83,  84,  85,  86,  87,  88,  89,  90,  91,  92,  93, 115, 116, 117
 118, 119, 120, 121, 122, 123, 124, 125, 126, 127, 128, 129, 130, 131, 132, 133
 134, 135, 411, 412, 413, 414, 415, 416, 417, 418, 419, 420, 421, 422, 423, 424
 425, 426, 427, 428, 429, 430, 431, 432, 433, 434, 435, 436, 437, 438, 439, 440
 441, 442, 443, 444, 445, 446, 447, 448, 449, 450, 451, 452
*Elset, elset=Bot
 106, 107, 108, 118, 119, 120, 130, 131, 132, 142, 143, 144, 154, 155, 156, 166
 167, 168, 178, 179, 180, 190, 191, 192, 202, 203, 204, 214, 215, 216, 226, 227
 228, 238, 239, 240, 250, 251, 252, 262, 263, 264, 274, 275, 276, 286, 287, 288
 298, 299, 300, 310, 311, 312, 322, 323, 324, 334, 335, 336, 346, 347, 348, 358
 359, 360
*Nset, nset=FullGeom, generate
   1,  620,    1
*Elset, elset=FullGeom, generate
   1,  360,    1
*Nset, nset=X_Edges
   1,   2,   4,   5,   6,   7,   8,  10,  11,  12,  13,  14,  18,  19,  20,  21
  22,  23,  24,  27,  28,  29,  30,  31,  32,  33,  37,  38,  39,  40,  41,  42
  43,  46,  47,  48,  49,  50,  51,  52,  73,  74,  75,  76,  77,  78,  79,  80
  81,  82,  83,  84,  85,  86,  87,  88,  89,  90,  91,  92,  93,  94,  95,  96
  97,  98,  99, 100, 101, 102, 103, 104, 105, 106, 107, 108, 109, 110, 111, 112
 113, 114, 115, 116, 117, 118, 119, 120, 121, 122, 123, 124, 125, 126, 127, 128
 129, 130, 131, 132, 133, 134, 135, 136, 137, 138, 139, 140, 141, 142, 143, 144
 145, 146, 147, 148, 149, 150, 151, 152, 153, 154, 155, 156
*Elset, elset=X_Edges
   1,   4,   5,   8,   9,  12,  13,  16,  17,  20,  21,  24,  25,  28,  29,  32
  65,  68,  69,  72,  73,  76,  77,  80,  81,  84,  85,  88,  89,  92,  93,  96
  97,  99, 106, 108, 109, 111, 118, 120, 121, 123, 130, 132, 133, 135, 142, 144
 145, 147, 154, 156, 157, 159, 166, 168, 169, 171, 178, 180, 181, 183, 190, 192
 193, 195, 202, 204, 205, 207, 214, 216, 217, 219, 226, 228, 229, 231, 238, 240
 241, 243, 250, 252, 253, 255, 262, 264, 265, 267, 274, 276, 277, 279, 286, 288
 289, 291, 298, 300, 301, 303, 310, 312, 313, 315, 322, 324, 325, 327, 334, 336
 337, 339, 346, 348, 349, 351, 358, 360
*Nset, nset=Y_Edges
  1,  2,  4,  5,  6,  7,  8, 10, 11, 12, 13, 14, 53, 54, 55, 56
 57, 58, 59, 60, 63, 64, 68, 69
*Elset, elset=Y_Edges
   1,   4,  29,  32,  33,  36,  61,  64,  65,  68,  93,  96,  97,  98,  99, 106
 107, 108, 349, 350, 351, 358, 359, 360
*Nset, nset=Z_Edges
  1,  2,  3,  4,  6,  8,  9, 10, 11, 12, 13, 14, 15, 16, 17, 26
 34, 35, 36, 44, 65, 66, 67, 70, 71, 72
*Elset, elset=Z_Edges
   1,   2,   3,   4,  31,  32,  65,  66,  67,  68,  93,  94,  97,  99, 100, 102
 103, 105, 106, 108, 349, 351, 352, 354, 355, 357, 358, 360
*Orientation, name=Ori-1
1., 0., 0., 0., 1., 0.
1, 0.
*Solid Section, elset=FullGeom, orientation=Ori-1, material=TopMat
1.,
*End Part
*Assembly, name=Assembly
*Instance, name=ceInst, part=Cz
         40.,           0.,         2.24
*End Instance
*Instance, name=pTop, part=Top
          0.,           0.,         2.44
*End Instance
*Instance, name=pBot, part=Bot
*End Instance
*Node
      1,           0.,           0.,   4.67999983
*Node
      2,           0.,           0.,           0.
*Nset, nset=FixedEnd, instance=pBot
  3,  9, 61, 62
*Elset, elset=FixedEnd, instance=pBot
 30, 31, 62, 63, 94, 95
*Nset, nset=FixedPoint
 2,
*Nset, nset=LoadEnd, instance=pTop
  3,  9, 61, 62
*Elset, elset=LoadEnd, instance=pTop
 30, 31, 62, 63, 94, 95
*Nset, nset=LoadPoint
 1,
*Surface, type=NODE, name=ceInst_Top_CNS_, internal
ceInst.Top, 1.
*Surface, type=NODE, name=pTop_Bot_CNS_, internal
pTop.Bot, 1.
*Surface, type=NODE, name=ceInst_Bot_CNS_, internal
ceInst.Bot, 1.
*Surface, type=NODE, name=pBot_Top_CNS_, internal
pBot.Top, 1.
*Surface, type=NODE, name=FixedEnd_CNS_, internal
FixedEnd, 1.
*Surface, type=NODE, name=LoadEnd_CNS_, internal
LoadEnd, 1.
*Tie, name=Constraint-1, adjust=no, no rotation, type=NODE TO SURFACE
pTop_Bot_CNS_, ceInst_Top_CNS_
*Tie, name=Constraint-2, adjust=no, no rotation, type=NODE TO SURFACE
pBot_Top_CNS_, ceInst_Bot_CNS_
*Coupling, constraint name=Constraint-11, ref node=FixedPoint, surface=FixedEnd_CNS_
*Kinematic
*Coupling, constraint name=Constraint-12, ref node=LoadPoint, surface=LoadEnd_CNS_
*Kinematic
*End Assembly
*Material, name=BotMat
*Elastic, type=ENGINEERING CONSTANTS
140000.,8819.,8819., 0.34, 0.34, 0.38,4315.,4315.
3200.,
*Material, name=CzMat
*Damage Initiation, criterion=QUADS
18., 48.24, 48.24
*Damage Evolution, type=ENERGY, mixed mode behavior=BK, power=4.
 0.51, 5.1, 5.1
*Elastic, type=TRACTION
2490.,2490.,2490.
*Material, name=TopMat
*Elastic, type=ENGINEERING CONSTANTS
140000.,8819.,8819., 0.34, 0.34, 0.38,4315.,4315.
3200.,
*Step, name=Step-1, nlgeom=YES, inc=1000000000
*Static
0.001, 1., 1e-15, 0.01
*Boundary
FixedPoint, 1, 1
FixedPoint, 2, 2
FixedPoint, 3, 3, -3.
FixedPoint, 4, 4
FixedPoint, 6, 6
*Boundary
LoadPoint, 1, 1
LoadPoint, 2, 2
LoadPoint, 3, 3, 3.
LoadPoint, 4, 4
LoadPoint, 6, 6
*Controls, reset
*Controls, parameters=time incrementation
, , , , , , , 15, , , 
*Restart, write, frequency=0
*Output, field, frequency=10
*Node Output
RF, U
*Element Output, directions=YES
S, 
*Output, history, time interval=0.01
*Node Output, nset=LoadPoint
RT, UT
*End Step
