1

   Abaqus 3DEXPERIENCE R2018x                                  Date 04-Oct-2021   Time 07:52:56
   For use by Supplied by Team-SolidSQUAD under license from Dassault Systemes or its subsidiary.

                                                                                 
                                                                                 
 STEP    1     INCREMENT     1     STEP TIME    0.00    


                        S T E P       1     S T A T I C   A N A L Y S I S


                                                                                          

     AUTOMATIC TIME CONTROL WITH -
          A SUGGESTED INITIAL TIME INCREMENT OF                1.000E-03
          AND A TOTAL TIME PERIOD OF                            1.00    
          THE MINIMUM TIME INCREMENT ALLOWED IS                1.000E-15
          THE MAXIMUM TIME INCREMENT ALLOWED IS                1.000E-02

     LINEAR EQUATION SOLVER TYPE         DIRECT SPARSE

 CONVERGENCE TOLERANCE PARAMETERS FOR FORCE    
     CRITERION FOR RESIDUAL FORCE     FOR A NONLINEAR PROBLEM          5.000E-03
     CRITERION FOR DISP.    CORRECTION IN A NONLINEAR PROBLEM          1.000E-02
     INITIAL VALUE OF TIME AVERAGE FORCE                               1.000E-02
     AVERAGE FORCE     IS TIME AVERAGE FORCE    
     ALTERNATE CRIT. FOR RESIDUAL FORCE     FOR A NONLINEAR PROBLEM    2.000E-02
     CRITERION FOR ZERO FORCE     RELATIVE TO TIME AVRG. FORCE         1.000E-05
     CRITERION FOR RESIDUAL FORCE     WHEN THERE IS ZERO FLUX          1.000E-05
     CRITERION FOR DISP.    CORRECTION WHEN THERE IS ZERO FLUX         1.000E-03
     CRITERION FOR RESIDUAL FORCE     FOR A LINEAR INCREMENT           1.000E-08
     FIELD CONVERSION RATIO                                             1.00    
     CRITERION FOR ZERO FORCE     REL. TO TIME AVRG. MAX. FORCE        1.000E-05
     CRITERION FOR ZERO DISP.    RELATIVE TO CHARACTERISTIC LENGTH     1.000E-08

 CONVERGENCE TOLERANCE PARAMETERS FOR MOMENT   
     CRITERION FOR RESIDUAL MOMENT    FOR A NONLINEAR PROBLEM          5.000E-03
     CRITERION FOR ROTATION CORRECTION IN A NONLINEAR PROBLEM          1.000E-02
     INITIAL VALUE OF TIME AVERAGE MOMENT                              1.000E-02
     AVERAGE MOMENT    IS TIME AVERAGE MOMENT   
     ALTERNATE CRIT. FOR RESIDUAL MOMENT    FOR A NONLINEAR PROBLEM    2.000E-02
     CRITERION FOR ZERO MOMENT    RELATIVE TO TIME AVRG. MOMENT        1.000E-05
     CRITERION FOR RESIDUAL MOMENT    WHEN THERE IS ZERO FLUX          1.000E-05
     CRITERION FOR ROTATION CORRECTION WHEN THERE IS ZERO FLUX         1.000E-03
     CRITERION FOR RESIDUAL MOMENT    FOR A LINEAR INCREMENT           1.000E-08
     FIELD CONVERSION RATIO                                             1.00    
     CRITERION FOR ZERO MOMENT    REL. TO TIME AVRG. MAX. MOMENT       1.000E-05

     VOLUMETRIC STRAIN COMPATIBILITY TOLERANCE FOR HYBRID SOLIDS       1.000E-05
     AXIAL STRAIN COMPATIBILITY TOLERANCE FOR HYBRID BEAMS             1.000E-05
     TRANS. SHEAR STRAIN COMPATIBILITY TOLERANCE FOR HYBRID BEAMS      1.000E-05
     SOFT CONTACT CONSTRAINT COMPATIBILITY TOLERANCE FOR P>P0          5.000E-03
     SOFT CONTACT CONSTRAINT COMPATIBILITY TOLERANCE FOR P=0.0         0.100    
     CONTACT FORCE ERROR TOLERANCE FOR CONVERT SDI=YES                 1.00    
     DISPLACEMENT COMPATIBILITY TOLERANCE FOR DCOUP ELEMENTS           1.000E-05
     ROTATION COMPATIBILITY TOLERANCE FOR DCOUP ELEMENTS               1.000E-05

 EQUILIBRIUM WILL BE CHECKED FOR SEVERE DISCONTINUITY ITERATIONS

 TIME INCREMENTATION CONTROL PARAMETERS:
     FIRST EQUILIBRIUM ITERATION FOR CONSECUTIVE DIVERGENCE CHECK              4
     EQUILIBRIUM ITERATION AT WHICH LOG. CONVERGENCE RATE CHECK BEGINS         8
     EQUILIBRIUM ITERATION AFTER WHICH ALTERNATE RESIDUAL IS USED              9
     MAXIMUM EQUILIBRIUM ITERATIONS ALLOWED                                   16
     EQUILIBRIUM ITERATION COUNT FOR CUT-BACK IN NEXT INCREMENT               10
     MAXIMUM EQUILIB. ITERS IN TWO INCREMENTS FOR TIME INCREMENT INCREASE      4
     MAXIMUM ITERATIONS FOR SEVERE DISCONTINUITIES                            50
 *** MAXIMUM ATTEMPTS ALLOWED IN AN INCREMENT                                 15
     MAXIMUM DISCON. ITERS IN TWO INCREMENTS FOR TIME INCREMENT INCREASE      50
     MAXIMUM CONTACT AUGMENTATIONS FOR *SURFACE BEHAVIOR,AUGMENTED LAGRANGE   50
     CUT-BACK FACTOR AFTER DIVERGENCE                                 0.2500    
     CUT-BACK FACTOR FOR TOO SLOW CONVERGENCE                         0.5000    
     CUT-BACK FACTOR AFTER TOO MANY EQUILIBRIUM ITERATIONS            0.7500    
     CUT-BACK FACTOR AFTER TOO MANY SEVERE DISCONTINUITY ITERATIONS   0.2500    
     CUT-BACK FACTOR AFTER PROBLEMS IN ELEMENT ASSEMBLY               0.2500    
     INCREASE FACTOR AFTER TWO INCREMENTS THAT CONVERGE QUICKLY        1.500    
     MAX. TIME INCREMENT INCREASE FACTOR ALLOWED                       1.500    
     MAX. TIME INCREMENT INCREASE FACTOR ALLOWED (DYNAMICS)            1.250    
     MAX. TIME INCREMENT INCREASE FACTOR ALLOWED (DIFFUSION)           2.000    
     MINIMUM TIME INCREMENT RATIO FOR EXTRAPOLATION TO OCCUR          0.1000    
     MAX. RATIO OF TIME INCREMENT TO STABILITY LIMIT                   1.000    
     FRACTION OF STABILITY LIMIT FOR NEW TIME INCREMENT               0.9500    
     TIME INCREMENT INCREASE FACTOR BEFORE A TIME POINT                1.000    

 *** INDICATES USE OF NON-DEFAULT TIME INCREMENTATION CONTROL PARAMETER
     SELECTED WITH *CONTROLS
     GLOBAL STABILIZATION CONTROL IS NOT USED

          PRINT OF INCREMENT NUMBER, TIME, ETC., EVERY    1  INCREMENTS

     THE MAXIMUM NUMBER OF INCREMENTS IN THIS STEP IS                 *******

          LARGE DISPLACEMENT THEORY WILL BE USED

     LINEAR EXTRAPOLATION WILL BE USED

     CHARACTERISTIC ELEMENT LENGTH      2.19    

     DETAILS REGARDING ACTUAL SOLUTION WAVEFRONT REQUESTED

     DETAILED OUTPUT OF DIAGNOSTICS TO DATABASE REQUESTED

     PRINT OF INCREMENT NUMBER, TIME, ETC., TO THE MESSAGE FILE EVERY     1  INCREMENTS

     ELEMENT OPERATIONS WILL BE CARRIED OUT IN PARALLEL USING   7 PROCESSORS

     PARALLEL CONTACT TRACKING ENABLED


     COLLECTING MODEL CONSTRAINT INFORMATION FOR OVERCONSTRAINT CHECKS

     COLLECTING STEP CONSTRAINT INFORMATION FOR OVERCONSTRAINT CHECKS
 
     GPU SOLVER ACCELERATION ENABLED

  
     ASYNCHRONOUS OUTPUT DATABASE FRAME FLUSH STARTED
  


  INCREMENT     1 STARTS. ATTEMPT NUMBER  1, TIME INCREMENT  1.000E-03
 
     INITIAL ELEMENT LOAD BALANCE
        COMPUTE NODE   1   PROCESS    NUMBER OF ELEMENTS
                              1            114
                              2            112
                              3            112
                              4            112
                              5            112
                              6            112
                              7            112

  NUMBER OF EQUATIONS =      3708     NUMBER OF RHS =    1
  NUMBER OF FLOATING PT. OPERATIONS =  9.31E+07

  USING THE DIRECT SOLVER WITH   7 PROCESSORS

     CHECK POINT   START OF SOLVER    

     CHECK POINT  END OF SOLVER       

       ELAPSED USER TIME (SEC)      =  0.20000    
       ELAPSED SYSTEM TIME (SEC)    =   0.0000    
       ELAPSED TOTAL CPU TIME (SEC) =  0.20000    
       ELAPSED WALLCLOCK TIME (SEC) =          0
 

 ***WARNING: SOLVER PROBLEM. NUMERICAL SINGULARITY WHEN PROCESSING NODE 
             CEINST.121 D.O.F. 1 RATIO = 14.1911E+12 .
 

 ***WARNING: SOLVER PROBLEM. NUMERICAL SINGULARITY WHEN PROCESSING NODE 
             CEINST.121 D.O.F. 3 RATIO = 2.08075E+12.

               CONVERGENCE CHECKS FOR EQUILIBRIUM ITERATION     1


 AVERAGE FORCE                      3.643E-03   TIME AVG. FORCE       3.643E-03
 LARGEST RESIDUAL FORCE             4.302E-04   AT NODE        233   DOF  1
   INSTANCE: PBOT                                                                            
 LARGEST INCREMENT OF DISP.         3.000E-03   AT NODE          3   DOF  3
   INSTANCE: PTOP                                                                            
 LARGEST CORRECTION TO DISP.        3.000E-03   AT NODE          3   DOF  3
   INSTANCE: PTOP                                                                            
          FORCE     EQUILIBRIUM NOT ACHIEVED WITHIN TOLERANCE.

 AVERAGE MOMENT                      0.00       TIME AVG. MOMENT      2.187E-02
                                                (FROM FORCE     FIELD)
 LARGEST RESIDUAL MOMENT            1.451E-03   AT NODE          2   DOF  5
   INSTANCE:                                                                                 
 LARGEST INCREMENT OF ROTATION      1.993E-05   AT NODE          1   DOF  5
   INSTANCE: {assembly node}                                                                 
 LARGEST CORRECTION TO ROTATION     1.993E-05   AT NODE          1   DOF  5
   INSTANCE: {assembly node}                                                                 
          THE MOMENT    IS ZERO EVERYWHERE BUT THE MOMENT    RESIDUAL OR
          THE ROTATION CORRECTION IS NON-ZERO

  NUMBER OF EQUATIONS =      3708     NUMBER OF RHS =    1
  NUMBER OF FLOATING PT. OPERATIONS =  9.31E+07

  USING THE DIRECT SOLVER WITH   7 PROCESSORS

     CHECK POINT   START OF SOLVER    

     CHECK POINT  END OF SOLVER       

       ELAPSED USER TIME (SEC)      =   0.0000    
       ELAPSED SYSTEM TIME (SEC)    =   0.0000    
       ELAPSED TOTAL CPU TIME (SEC) =   0.0000    
       ELAPSED WALLCLOCK TIME (SEC) =          0

               CONVERGENCE CHECKS FOR EQUILIBRIUM ITERATION     2


 AVERAGE FORCE                      3.643E-03   TIME AVG. FORCE       3.643E-03
 LARGEST RESIDUAL FORCE             8.230E-06   AT NODE        234   DOF  3
   INSTANCE: PTOP                                                                            
 LARGEST INCREMENT OF DISP.         3.000E-03   AT NODE          3   DOF  3
   INSTANCE: PTOP                                                                            
 LARGEST CORRECTION TO DISP.        2.228E-05   AT NODE          5   DOF  1
   INSTANCE: PTOP                                                                            
          THE FORCE     EQUILIBRIUM EQUATIONS HAVE CONVERGED

 AVERAGE MOMENT                      0.00       TIME AVG. MOMENT      2.187E-02
                                                (FROM FORCE     FIELD)
 LARGEST RESIDUAL MOMENT           -1.439E-08   AT NODE          2   DOF  5
   INSTANCE:                                                                                 
 LARGEST INCREMENT OF ROTATION      8.442E-08   AT NODE          1   DOF  5
   INSTANCE: {assembly node}                                                                 
 LARGEST CORRECTION TO ROTATION    -1.984E-05   AT NODE          1   DOF  5
   INSTANCE: {assembly node}                                                                 
          THERE IS ZERO MOMENT    EVERYWHERE

 ITERATION SUMMARY FOR THE INCREMENT:   2 TOTAL ITERATIONS, OF WHICH
   0 ARE SEVERE DISCONTINUITY ITERATIONS AND  2 ARE EQUILIBRIUM ITERATIONS.

 TIME INCREMENT COMPLETED  1.000E-03,  FRACTION OF STEP COMPLETED  1.000E-03
 STEP TIME COMPLETED       1.000E-03,  TOTAL TIME COMPLETED        1.000E-03


  INCREMENT     2 STARTS. ATTEMPT NUMBER  1, TIME INCREMENT  1.000E-03

  NUMBER OF EQUATIONS =      3708     NUMBER OF RHS =    1
  NUMBER OF FLOATING PT. OPERATIONS =  9.31E+07

  USING THE DIRECT SOLVER WITH   7 PROCESSORS

     CHECK POINT   START OF SOLVER    

     CHECK POINT  END OF SOLVER       

       ELAPSED USER TIME (SEC)      =  0.10000    
       ELAPSED SYSTEM TIME (SEC)    =   0.0000    
       ELAPSED TOTAL CPU TIME (SEC) =  0.10000    
       ELAPSED WALLCLOCK TIME (SEC) =          0

               CONVERGENCE CHECKS FOR EQUILIBRIUM ITERATION     1


 AVERAGE FORCE                      1.571E-02   TIME AVG. FORCE       9.677E-03
 LARGEST RESIDUAL FORCE             7.457E-08   AT NODE        231   DOF  1
   INSTANCE: PBOT                                                                            
 LARGEST INCREMENT OF DISP.         3.000E-03   AT NODE          1   DOF  3
   INSTANCE: {assembly node}                                                                 
 LARGEST CORRECTION TO DISP.       -2.484E-05   AT NODE         14   DOF  3
   INSTANCE: PBOT                                                                            
          THE FORCE     EQUILIBRIUM EQUATIONS HAVE CONVERGED

 AVERAGE MOMENT                      0.00       TIME AVG. MOMENT      1.000E-02
 LARGEST RESIDUAL MOMENT           -3.752E-08   AT NODE          2   DOF  5
   INSTANCE:                                                                                 
 LARGEST INCREMENT OF ROTATION     -1.258E-07   AT NODE          1   DOF  5
   INSTANCE: {assembly node}                                                                 
 LARGEST CORRECTION TO ROTATION    -2.102E-07   AT NODE          1   DOF  5
   INSTANCE: {assembly node}                                                                 
          THERE IS ZERO MOMENT    EVERYWHERE
          TIME INCREMENT MAY NOW INCREASE TO    1.500E-03

 ITERATION SUMMARY FOR THE INCREMENT:   1 TOTAL ITERATIONS, OF WHICH
   0 ARE SEVERE DISCONTINUITY ITERATIONS AND  1 ARE EQUILIBRIUM ITERATIONS.

 TIME INCREMENT COMPLETED  1.000E-03,  FRACTION OF STEP COMPLETED  2.000E-03
 STEP TIME COMPLETED       2.000E-03,  TOTAL TIME COMPLETED        2.000E-03


  INCREMENT     3 STARTS. ATTEMPT NUMBER  1, TIME INCREMENT  1.500E-03

  NUMBER OF EQUATIONS =      3708     NUMBER OF RHS =    1
  NUMBER OF FLOATING PT. OPERATIONS =  9.31E+07

  USING THE DIRECT SOLVER WITH   7 PROCESSORS

     CHECK POINT   START OF SOLVER    

     CHECK POINT  END OF SOLVER       

       ELAPSED USER TIME (SEC)      =   0.0000    
       ELAPSED SYSTEM TIME (SEC)    =   0.0000    
       ELAPSED TOTAL CPU TIME (SEC) =   0.0000    
       ELAPSED WALLCLOCK TIME (SEC) =          0

               CONVERGENCE CHECKS FOR EQUILIBRIUM ITERATION     1


 AVERAGE FORCE                      2.736E-02   TIME AVG. FORCE       1.557E-02
 LARGEST RESIDUAL FORCE             1.686E-07   AT NODE        228   DOF  1
   INSTANCE: PTOP                                                                            
 LARGEST INCREMENT OF DISP.        -4.500E-03   AT NODE          3   DOF  3
   INSTANCE: PBOT                                                                            
 LARGEST CORRECTION TO DISP.        3.741E-05   AT NODE         13   DOF  3
   INSTANCE: PBOT                                                                            
          THE FORCE     EQUILIBRIUM EQUATIONS HAVE CONVERGED

 AVERAGE MOMENT                      0.00       TIME AVG. MOMENT      2.116E-02
                                                (FROM FORCE     FIELD)
 LARGEST RESIDUAL MOMENT            9.754E-08   AT NODE          2   DOF  5
   INSTANCE:                                                                                 
 LARGEST INCREMENT OF ROTATION      9.508E-08   AT NODE          2   DOF  5
   INSTANCE: {assembly node}                                                                 
 LARGEST CORRECTION TO ROTATION     2.836E-07   AT NODE          1   DOF  5
   INSTANCE: {assembly node}                                                                 
          THERE IS ZERO MOMENT    EVERYWHERE
          TIME INCREMENT MAY NOW INCREASE TO    2.250E-03

 ITERATION SUMMARY FOR THE INCREMENT:   1 TOTAL ITERATIONS, OF WHICH
   0 ARE SEVERE DISCONTINUITY ITERATIONS AND  1 ARE EQUILIBRIUM ITERATIONS.

 TIME INCREMENT COMPLETED  1.500E-03,  FRACTION OF STEP COMPLETED  3.500E-03
 STEP TIME COMPLETED       3.500E-03,  TOTAL TIME COMPLETED        3.500E-03


  INCREMENT     4 STARTS. ATTEMPT NUMBER  1, TIME INCREMENT  2.250E-03

  NUMBER OF EQUATIONS =      3708     NUMBER OF RHS =    1
  NUMBER OF FLOATING PT. OPERATIONS =  9.31E+07

  USING THE DIRECT SOLVER WITH   7 PROCESSORS

     CHECK POINT   START OF SOLVER    

     CHECK POINT  END OF SOLVER       

       ELAPSED USER TIME (SEC)      =  0.40000    
       ELAPSED SYSTEM TIME (SEC)    =   0.0000    
       ELAPSED TOTAL CPU TIME (SEC) =  0.40000    
       ELAPSED WALLCLOCK TIME (SEC) =          0

               CONVERGENCE CHECKS FOR EQUILIBRIUM ITERATION     1


 AVERAGE FORCE                      4.472E-02   TIME AVG. FORCE       2.286E-02
 LARGEST RESIDUAL FORCE             2.456E-07   AT NODE        228   DOF  1
   INSTANCE: PBOT                                                                            
 LARGEST INCREMENT OF DISP.         6.750E-03   AT NODE          1   DOF  3
   INSTANCE: {assembly node}                                                                 
 LARGEST CORRECTION TO DISP.       -3.623E-05   AT NODE         11   DOF  3
   INSTANCE: PTOP                                                                            
          THE FORCE     EQUILIBRIUM EQUATIONS HAVE CONVERGED

 AVERAGE MOMENT                      0.00       TIME AVG. MOMENT      3.405E-02
                                                (FROM FORCE     FIELD)
 LARGEST RESIDUAL MOMENT           -1.303E-07   AT NODE          1   DOF  5
   INSTANCE:                                                                                 
 LARGEST INCREMENT OF ROTATION     -1.013E-07   AT NODE          1   DOF  5
   INSTANCE: {assembly node}                                                                 
 LARGEST CORRECTION TO ROTATION    -2.439E-07   AT NODE          2   DOF  5
   INSTANCE: {assembly node}                                                                 
          THERE IS ZERO MOMENT    EVERYWHERE
          TIME INCREMENT MAY NOW INCREASE TO    3.375E-03

 ITERATION SUMMARY FOR THE INCREMENT:   1 TOTAL ITERATIONS, OF WHICH
   0 ARE SEVERE DISCONTINUITY ITERATIONS AND  1 ARE EQUILIBRIUM ITERATIONS.

 TIME INCREMENT COMPLETED  2.250E-03,  FRACTION OF STEP COMPLETED  5.750E-03
 STEP TIME COMPLETED       5.750E-03,  TOTAL TIME COMPLETED        5.750E-03


  INCREMENT     5 STARTS. ATTEMPT NUMBER  1, TIME INCREMENT  3.375E-03

  NUMBER OF EQUATIONS =      3708     NUMBER OF RHS =    1
  NUMBER OF FLOATING PT. OPERATIONS =  9.31E+07

  USING THE DIRECT SOLVER WITH   7 PROCESSORS

     CHECK POINT   START OF SOLVER    

     CHECK POINT  END OF SOLVER       

       ELAPSED USER TIME (SEC)      =  0.20000    
       ELAPSED SYSTEM TIME (SEC)    =   0.0000    
       ELAPSED TOTAL CPU TIME (SEC) =  0.20000    
       ELAPSED WALLCLOCK TIME (SEC) =          0

               CONVERGENCE CHECKS FOR EQUILIBRIUM ITERATION     1


 AVERAGE FORCE                      7.071E-02   TIME AVG. FORCE       3.243E-02
 LARGEST RESIDUAL FORCE             4.470E-07   AT NODE        183   DOF  3
   INSTANCE: CEINST                                                                          
 LARGEST INCREMENT OF DISP.         1.013E-02   AT NODE          1   DOF  3
   INSTANCE: {assembly node}                                                                 
 LARGEST CORRECTION TO DISP.        3.614E-05   AT NODE         11   DOF  3
   INSTANCE: PTOP                                                                            
          THE FORCE     EQUILIBRIUM EQUATIONS HAVE CONVERGED

 AVERAGE MOMENT                      0.00       TIME AVG. MOMENT      4.998E-02
                                                (FROM FORCE     FIELD)
 LARGEST RESIDUAL MOMENT            1.921E-07   AT NODE          2   DOF  5
   INSTANCE:                                                                                 
 LARGEST INCREMENT OF ROTATION      9.262E-08   AT NODE          1   DOF  5
   INSTANCE: {assembly node}                                                                 
 LARGEST CORRECTION TO ROTATION     2.445E-07   AT NODE          1   DOF  5
   INSTANCE: {assembly node}                                                                 
          THERE IS ZERO MOMENT    EVERYWHERE
          TIME INCREMENT MAY NOW INCREASE TO    5.063E-03
          TIME INCREMENT REDUCED TO   8.750E-04 TO MEET NEXT OUTPUT TIME POINT

 ITERATION SUMMARY FOR THE INCREMENT:   1 TOTAL ITERATIONS, OF WHICH
   0 ARE SEVERE DISCONTINUITY ITERATIONS AND  1 ARE EQUILIBRIUM ITERATIONS.

 TIME INCREMENT COMPLETED  3.375E-03,  FRACTION OF STEP COMPLETED  9.125E-03
 STEP TIME COMPLETED       9.125E-03,  TOTAL TIME COMPLETED        9.125E-03


  INCREMENT     6 STARTS. ATTEMPT NUMBER  1, TIME INCREMENT  8.750E-04

  NUMBER OF EQUATIONS =      3708     NUMBER OF RHS =    1
  NUMBER OF FLOATING PT. OPERATIONS =  9.31E+07

  USING THE DIRECT SOLVER WITH   7 PROCESSORS

     CHECK POINT   START OF SOLVER    

     CHECK POINT  END OF SOLVER       

       ELAPSED USER TIME (SEC)      =  0.20000    
       ELAPSED SYSTEM TIME (SEC)    =   0.0000    
       ELAPSED TOTAL CPU TIME (SEC) =  0.20000    
       ELAPSED WALLCLOCK TIME (SEC) =          0

               CONVERGENCE CHECKS FOR EQUILIBRIUM ITERATION     1


 AVERAGE FORCE                      7.816E-02   TIME AVG. FORCE       4.005E-02
 LARGEST RESIDUAL FORCE            -3.089E-07   AT NODE        182   DOF  3
   INSTANCE: CEINST                                                                          
 LARGEST INCREMENT OF DISP.         2.625E-03   AT NODE          1   DOF  3
   INSTANCE: {assembly node}                                                                 
 LARGEST CORRECTION TO DISP.       -1.059E-05   AT NODE         11   DOF  3
   INSTANCE: PTOP                                                                            
          THE FORCE     EQUILIBRIUM EQUATIONS HAVE CONVERGED

 AVERAGE MOMENT                      0.00       TIME AVG. MOMENT      7.091E-02
                                                (FROM FORCE     FIELD)
 LARGEST RESIDUAL MOMENT           -1.467E-08   AT NODE          1   DOF  5
   INSTANCE:                                                                                 
 LARGEST INCREMENT OF ROTATION     -4.819E-08   AT NODE          2   DOF  5
   INSTANCE: {assembly node}                                                                 
 LARGEST CORRECTION TO ROTATION    -7.220E-08   AT NODE          2   DOF  5
   INSTANCE: {assembly node}                                                                 
          THERE IS ZERO MOMENT    EVERYWHERE
          TIME INCREMENT MAY NOW INCREASE TO    7.594E-03

 ITERATION SUMMARY FOR THE INCREMENT:   1 TOTAL ITERATIONS, OF WHICH
   0 ARE SEVERE DISCONTINUITY ITERATIONS AND  1 ARE EQUILIBRIUM ITERATIONS.

 TIME INCREMENT COMPLETED  8.750E-04,  FRACTION OF STEP COMPLETED  1.000E-02
 STEP TIME COMPLETED       1.000E-02,  TOTAL TIME COMPLETED        1.000E-02
  
     ASYNCHRONOUS OUTPUT DATABASE FRAME FLUSH STARTED
  


  INCREMENT     7 STARTS. ATTEMPT NUMBER  1, TIME INCREMENT  7.594E-03

  NUMBER OF EQUATIONS =      3708     NUMBER OF RHS =    1
  NUMBER OF FLOATING PT. OPERATIONS =  9.31E+07

  USING THE DIRECT SOLVER WITH   7 PROCESSORS

     CHECK POINT   START OF SOLVER    

     CHECK POINT  END OF SOLVER       

       ELAPSED USER TIME (SEC)      =  0.10000    
       ELAPSED SYSTEM TIME (SEC)    =  0.10000    
       ELAPSED TOTAL CPU TIME (SEC) =  0.20000    
       ELAPSED WALLCLOCK TIME (SEC) =          0

               CONVERGENCE CHECKS FOR EQUILIBRIUM ITERATION     1


 AVERAGE FORCE                      0.136       TIME AVG. FORCE       5.371E-02
 LARGEST RESIDUAL FORCE             1.820E-06   AT NODE        231   DOF  1
   INSTANCE: PTOP                                                                            
 LARGEST INCREMENT OF DISP.        -2.278E-02   AT NODE         53   DOF  3
   INSTANCE: PBOT                                                                            
 LARGEST CORRECTION TO DISP.        7.810E-05   AT NODE         11   DOF  3
   INSTANCE: PTOP                                                                            
          THE FORCE     EQUILIBRIUM EQUATIONS HAVE CONVERGED

 AVERAGE MOMENT                      0.00       TIME AVG. MOMENT      8.758E-02
                                                (FROM FORCE     FIELD)
 LARGEST RESIDUAL MOMENT            9.275E-07   AT NODE          2   DOF  5
   INSTANCE:                                                                                 
 LARGEST INCREMENT OF ROTATION      1.177E-07   AT NODE          2   DOF  5
   INSTANCE: {assembly node}                                                                 
 LARGEST CORRECTION TO ROTATION     5.359E-07   AT NODE          2   DOF  5
   INSTANCE: {assembly node}                                                                 
          THE MOMENT    IS ZERO EVERYWHERE BUT THE MOMENT    RESIDUAL OR
          THE ROTATION CORRECTION IS NON-ZERO

  NUMBER OF EQUATIONS =      3708     NUMBER OF RHS =    1
  NUMBER OF FLOATING PT. OPERATIONS =  9.31E+07

  USING THE DIRECT SOLVER WITH   7 PROCESSORS

     CHECK POINT   START OF SOLVER    

     CHECK POINT  END OF SOLVER       

       ELAPSED USER TIME (SEC)      =  0.20000    
       ELAPSED SYSTEM TIME (SEC)    =   0.0000    
       ELAPSED TOTAL CPU TIME (SEC) =  0.20000    
       ELAPSED WALLCLOCK TIME (SEC) =          0

               CONVERGENCE CHECKS FOR EQUILIBRIUM ITERATION     2


 AVERAGE FORCE                      0.136       TIME AVG. FORCE       5.371E-02
 LARGEST RESIDUAL FORCE             3.735E-07   AT NODE        231   DOF  1
   INSTANCE: PBOT                                                                            
 LARGEST INCREMENT OF DISP.        -2.278E-02   AT NODE         54   DOF  3
   INSTANCE: PBOT                                                                            
 LARGEST CORRECTION TO DISP.       -1.641E-05   AT NODE         11   DOF  3
   INSTANCE: PTOP                                                                            
          THE FORCE     EQUILIBRIUM EQUATIONS HAVE CONVERGED

 AVERAGE MOMENT                      0.00       TIME AVG. MOMENT      8.758E-02
                                                (FROM FORCE     FIELD)
 LARGEST RESIDUAL MOMENT           -2.289E-07   AT NODE          1   DOF  5
   INSTANCE:                                                                                 
 LARGEST INCREMENT OF ROTATION      3.159E-09   AT NODE          2   DOF  5
   INSTANCE: {assembly node}                                                                 
 LARGEST CORRECTION TO ROTATION    -1.145E-07   AT NODE          2   DOF  5
   INSTANCE: {assembly node}                                                                 
          THERE IS ZERO MOMENT    EVERYWHERE
          TIME INCREMENT MAY NOW INCREASE TO    1.000E-02
          TIME INCREMENT REDUCED TO   2.406E-03 TO MEET NEXT OUTPUT TIME POINT

 ITERATION SUMMARY FOR THE INCREMENT:   2 TOTAL ITERATIONS, OF WHICH
   0 ARE SEVERE DISCONTINUITY ITERATIONS AND  2 ARE EQUILIBRIUM ITERATIONS.

 TIME INCREMENT COMPLETED  7.594E-03,  FRACTION OF STEP COMPLETED  1.759E-02
 STEP TIME COMPLETED       1.759E-02,  TOTAL TIME COMPLETED        1.759E-02


  INCREMENT     8 STARTS. ATTEMPT NUMBER  1, TIME INCREMENT  2.406E-03

  NUMBER OF EQUATIONS =      3708     NUMBER OF RHS =    1
  NUMBER OF FLOATING PT. OPERATIONS =  9.31E+07

  USING THE DIRECT SOLVER WITH   7 PROCESSORS

     CHECK POINT   START OF SOLVER    

     CHECK POINT  END OF SOLVER       

       ELAPSED USER TIME (SEC)      =  0.10000    
       ELAPSED SYSTEM TIME (SEC)    =   0.0000    
       ELAPSED TOTAL CPU TIME (SEC) =  0.10000    
       ELAPSED WALLCLOCK TIME (SEC) =          0

               CONVERGENCE CHECKS FOR EQUILIBRIUM ITERATION     1


 AVERAGE FORCE                      0.155       TIME AVG. FORCE       6.639E-02
 LARGEST RESIDUAL FORCE            -3.980E-07   AT NODE        182   DOF  3
   INSTANCE: CEINST                                                                          
 LARGEST INCREMENT OF DISP.        -7.219E-03   AT NODE         53   DOF  3
   INSTANCE: PBOT                                                                            
 LARGEST CORRECTION TO DISP.       -2.921E-06   AT NODE        412   DOF  1
   INSTANCE: PBOT                                                                            
          THE FORCE     EQUILIBRIUM EQUATIONS HAVE CONVERGED

 AVERAGE MOMENT                      0.00       TIME AVG. MOMENT      0.117    
                                                (FROM FORCE     FIELD)
 LARGEST RESIDUAL MOMENT           -2.134E-09   AT NODE          1   DOF  5
   INSTANCE:                                                                                 
 LARGEST INCREMENT OF ROTATION     -7.155E-11   AT NODE          1   DOF  5
   INSTANCE: {assembly node}                                                                 
 LARGEST CORRECTION TO ROTATION    -1.073E-09   AT NODE          1   DOF  5
   INSTANCE: {assembly node}                                                                 
          THERE IS ZERO MOMENT    EVERYWHERE

 ITERATION SUMMARY FOR THE INCREMENT:   1 TOTAL ITERATIONS, OF WHICH
   0 ARE SEVERE DISCONTINUITY ITERATIONS AND  1 ARE EQUILIBRIUM ITERATIONS.

 TIME INCREMENT COMPLETED  2.406E-03,  FRACTION OF STEP COMPLETED  2.000E-02
 STEP TIME COMPLETED       2.000E-02,  TOTAL TIME COMPLETED        2.000E-02
  
     ASYNCHRONOUS OUTPUT DATABASE FRAME FLUSH STARTED
  


  INCREMENT     9 STARTS. ATTEMPT NUMBER  1, TIME INCREMENT  1.000E-02

  NUMBER OF EQUATIONS =      3708     NUMBER OF RHS =    1
  NUMBER OF FLOATING PT. OPERATIONS =  9.31E+07

  USING THE DIRECT SOLVER WITH   7 PROCESSORS

     CHECK POINT   START OF SOLVER    

     CHECK POINT  END OF SOLVER       

       ELAPSED USER TIME (SEC)      =  0.10000    
       ELAPSED SYSTEM TIME (SEC)    =   0.0000    
       ELAPSED TOTAL CPU TIME (SEC) =  0.10000    
       ELAPSED WALLCLOCK TIME (SEC) =          0

               CONVERGENCE CHECKS FOR EQUILIBRIUM ITERATION     1


 AVERAGE FORCE                      0.231       TIME AVG. FORCE       8.467E-02
 LARGEST RESIDUAL FORCE             8.576E-07   AT NODE        207   DOF  1
   INSTANCE: PBOT                                                                            
 LARGEST INCREMENT OF DISP.        -3.000E-02   AT NODE         54   DOF  3
   INSTANCE: PBOT                                                                            
 LARGEST CORRECTION TO DISP.       -1.535E-05   AT NODE          1   DOF  1
   INSTANCE: PTOP                                                                            
          THE FORCE     EQUILIBRIUM EQUATIONS HAVE CONVERGED

 AVERAGE MOMENT                      0.00       TIME AVG. MOMENT      0.145    
                                                (FROM FORCE     FIELD)
 LARGEST RESIDUAL MOMENT            3.508E-09   AT NODE          1   DOF  5
   INSTANCE:                                                                                 
 LARGEST INCREMENT OF ROTATION      1.835E-10   AT NODE          1   DOF  5
   INSTANCE: {assembly node}                                                                 
 LARGEST CORRECTION TO ROTATION     4.809E-10   AT NODE          1   DOF  5
   INSTANCE: {assembly node}                                                                 
          THERE IS ZERO MOMENT    EVERYWHERE

 ITERATION SUMMARY FOR THE INCREMENT:   1 TOTAL ITERATIONS, OF WHICH
   0 ARE SEVERE DISCONTINUITY ITERATIONS AND  1 ARE EQUILIBRIUM ITERATIONS.

 TIME INCREMENT COMPLETED  1.000E-02,  FRACTION OF STEP COMPLETED  3.000E-02
 STEP TIME COMPLETED       3.000E-02,  TOTAL TIME COMPLETED        3.000E-02
  
     ASYNCHRONOUS OUTPUT DATABASE FRAME FLUSH STARTED
  


  INCREMENT    10 STARTS. ATTEMPT NUMBER  1, TIME INCREMENT  1.000E-02

  NUMBER OF EQUATIONS =      3708     NUMBER OF RHS =    1
  NUMBER OF FLOATING PT. OPERATIONS =  9.31E+07

  USING THE DIRECT SOLVER WITH   7 PROCESSORS

     CHECK POINT   START OF SOLVER    

     CHECK POINT  END OF SOLVER       

       ELAPSED USER TIME (SEC)      =  0.10000    
       ELAPSED SYSTEM TIME (SEC)    =   0.0000    
       ELAPSED TOTAL CPU TIME (SEC) =  0.10000    
       ELAPSED WALLCLOCK TIME (SEC) =          0

               CONVERGENCE CHECKS FOR EQUILIBRIUM ITERATION     1


 AVERAGE FORCE                      0.307       TIME AVG. FORCE       0.107    
 LARGEST RESIDUAL FORCE             1.798E-06   AT NODE        214   DOF  1
   INSTANCE: PTOP                                                                            
 LARGEST INCREMENT OF DISP.         3.000E-02   AT NODE         57   DOF  3
   INSTANCE: PTOP                                                                            
 LARGEST CORRECTION TO DISP.       -2.448E-05   AT NODE          6   DOF  1
   INSTANCE: PBOT                                                                            
          THE FORCE     EQUILIBRIUM EQUATIONS HAVE CONVERGED

 AVERAGE MOMENT                      0.00       TIME AVG. MOMENT      0.185    
                                                (FROM FORCE     FIELD)
 LARGEST RESIDUAL MOMENT           -6.120E-08   AT NODE          2   DOF  5
   INSTANCE:                                                                                 
 LARGEST INCREMENT OF ROTATION     -1.571E-10   AT NODE          2   DOF  5
   INSTANCE: {assembly node}                                                                 
 LARGEST CORRECTION TO ROTATION    -3.406E-10   AT NODE          1   DOF  5
   INSTANCE: {assembly node}                                                                 
          THERE IS ZERO MOMENT    EVERYWHERE

 ITERATION SUMMARY FOR THE INCREMENT:   1 TOTAL ITERATIONS, OF WHICH
   0 ARE SEVERE DISCONTINUITY ITERATIONS AND  1 ARE EQUILIBRIUM ITERATIONS.

 TIME INCREMENT COMPLETED  1.000E-02,  FRACTION OF STEP COMPLETED  4.000E-02
 STEP TIME COMPLETED       4.000E-02,  TOTAL TIME COMPLETED        4.000E-02
  
     ASYNCHRONOUS OUTPUT DATABASE FRAME FLUSH STARTED
  


  INCREMENT    11 STARTS. ATTEMPT NUMBER  1, TIME INCREMENT  1.000E-02

  NUMBER OF EQUATIONS =      3708     NUMBER OF RHS =    1
  NUMBER OF FLOATING PT. OPERATIONS =  9.31E+07

  USING THE DIRECT SOLVER WITH   7 PROCESSORS

     CHECK POINT   START OF SOLVER    

     CHECK POINT  END OF SOLVER       

       ELAPSED USER TIME (SEC)      =  0.10000    
       ELAPSED SYSTEM TIME (SEC)    =   0.0000    
       ELAPSED TOTAL CPU TIME (SEC) =  0.10000    
       ELAPSED WALLCLOCK TIME (SEC) =          0

               CONVERGENCE CHECKS FOR EQUILIBRIUM ITERATION     1


 AVERAGE FORCE                      0.384       TIME AVG. FORCE       0.132    
 LARGEST RESIDUAL FORCE             2.735E-06   AT NODE        183   DOF  3
   INSTANCE: CEINST                                                                          
 LARGEST INCREMENT OF DISP.        -3.000E-02   AT NODE         54   DOF  3
   INSTANCE: PBOT                                                                            
 LARGEST CORRECTION TO DISP.       -2.448E-05   AT NODE          1   DOF  1
   INSTANCE: PTOP                                                                            
          THE FORCE     EQUILIBRIUM EQUATIONS HAVE CONVERGED

 AVERAGE MOMENT                      0.00       TIME AVG. MOMENT      0.234    
                                                (FROM FORCE     FIELD)
 LARGEST RESIDUAL MOMENT            4.647E-08   AT NODE          1   DOF  5
   INSTANCE:                                                                                 
 LARGEST INCREMENT OF ROTATION      6.379E-11   AT NODE          2   DOF  5
   INSTANCE: {assembly node}                                                                 
 LARGEST CORRECTION TO ROTATION     2.209E-10   AT NODE          2   DOF  5
   INSTANCE: {assembly node}                                                                 
          THERE IS ZERO MOMENT    EVERYWHERE

 ITERATION SUMMARY FOR THE INCREMENT:   1 TOTAL ITERATIONS, OF WHICH
   0 ARE SEVERE DISCONTINUITY ITERATIONS AND  1 ARE EQUILIBRIUM ITERATIONS.

 TIME INCREMENT COMPLETED  1.000E-02,  FRACTION OF STEP COMPLETED  5.000E-02
 STEP TIME COMPLETED       5.000E-02,  TOTAL TIME COMPLETED        5.000E-02
  
     ASYNCHRONOUS OUTPUT DATABASE FRAME FLUSH STARTED
  


  INCREMENT    12 STARTS. ATTEMPT NUMBER  1, TIME INCREMENT  1.000E-02

  NUMBER OF EQUATIONS =      3708     NUMBER OF RHS =    1
  NUMBER OF FLOATING PT. OPERATIONS =  9.31E+07

  USING THE DIRECT SOLVER WITH   7 PROCESSORS

     CHECK POINT   START OF SOLVER    

     CHECK POINT  END OF SOLVER       

       ELAPSED USER TIME (SEC)      =  0.10000    
       ELAPSED SYSTEM TIME (SEC)    =   0.0000    
       ELAPSED TOTAL CPU TIME (SEC) =  0.10000    
       ELAPSED WALLCLOCK TIME (SEC) =          0

               CONVERGENCE CHECKS FOR EQUILIBRIUM ITERATION     1


 AVERAGE FORCE                      0.462       TIME AVG. FORCE       0.160    
 LARGEST RESIDUAL FORCE             2.685E-06   AT NODE        214   DOF  1
   INSTANCE: PTOP                                                                            
 LARGEST INCREMENT OF DISP.         3.000E-02   AT NODE         58   DOF  3
   INSTANCE: PTOP                                                                            
 LARGEST CORRECTION TO DISP.       -2.448E-05   AT NODE          6   DOF  1
   INSTANCE: PBOT                                                                            
          THE FORCE     EQUILIBRIUM EQUATIONS HAVE CONVERGED

 AVERAGE MOMENT                      0.00       TIME AVG. MOMENT      0.289    
                                                (FROM FORCE     FIELD)
 LARGEST RESIDUAL MOMENT           -4.683E-08   AT NODE          2   DOF  5
   INSTANCE:                                                                                 
 LARGEST INCREMENT OF ROTATION     -2.942E-11   AT NODE          2   DOF  5
   INSTANCE: {assembly node}                                                                 
 LARGEST CORRECTION TO ROTATION    -9.321E-11   AT NODE          2   DOF  5
   INSTANCE: {assembly node}                                                                 
          THERE IS ZERO MOMENT    EVERYWHERE

 ITERATION SUMMARY FOR THE INCREMENT:   1 TOTAL ITERATIONS, OF WHICH
   0 ARE SEVERE DISCONTINUITY ITERATIONS AND  1 ARE EQUILIBRIUM ITERATIONS.

 TIME INCREMENT COMPLETED  1.000E-02,  FRACTION OF STEP COMPLETED  6.000E-02
 STEP TIME COMPLETED       6.000E-02,  TOTAL TIME COMPLETED        6.000E-02
  
     ASYNCHRONOUS OUTPUT DATABASE FRAME FLUSH STARTED
  


  INCREMENT    13 STARTS. ATTEMPT NUMBER  1, TIME INCREMENT  1.000E-02

  NUMBER OF EQUATIONS =      3708     NUMBER OF RHS =    1
  NUMBER OF FLOATING PT. OPERATIONS =  9.31E+07

  USING THE DIRECT SOLVER WITH   7 PROCESSORS

     CHECK POINT   START OF SOLVER    

     CHECK POINT  END OF SOLVER       

       ELAPSED USER TIME (SEC)      =  0.10000    
       ELAPSED SYSTEM TIME (SEC)    =   0.0000    
       ELAPSED TOTAL CPU TIME (SEC) =  0.10000    
       ELAPSED WALLCLOCK TIME (SEC) =          0

               CONVERGENCE CHECKS FOR EQUILIBRIUM ITERATION     1


 AVERAGE FORCE                      0.539       TIME AVG. FORCE       0.189    
 LARGEST RESIDUAL FORCE             3.128E-06   AT NODE        200   DOF  1
   INSTANCE: PBOT                                                                            
 LARGEST INCREMENT OF DISP.        -3.001E-02   AT NODE         53   DOF  3
   INSTANCE: PBOT                                                                            
 LARGEST CORRECTION TO DISP.       -2.448E-05   AT NODE         10   DOF  1
   INSTANCE: PTOP                                                                            
          THE FORCE     EQUILIBRIUM EQUATIONS HAVE CONVERGED

 AVERAGE MOMENT                      0.00       TIME AVG. MOMENT      0.349    
                                                (FROM FORCE     FIELD)
 LARGEST RESIDUAL MOMENT            4.376E-08   AT NODE          1   DOF  5
   INSTANCE:                                                                                 
 LARGEST INCREMENT OF ROTATION      1.047E-11   AT NODE          1   DOF  5
   INSTANCE: {assembly node}                                                                 
 LARGEST CORRECTION TO ROTATION     3.989E-11   AT NODE          2   DOF  5
   INSTANCE: {assembly node}                                                                 
          THERE IS ZERO MOMENT    EVERYWHERE

 ITERATION SUMMARY FOR THE INCREMENT:   1 TOTAL ITERATIONS, OF WHICH
   0 ARE SEVERE DISCONTINUITY ITERATIONS AND  1 ARE EQUILIBRIUM ITERATIONS.

 TIME INCREMENT COMPLETED  1.000E-02,  FRACTION OF STEP COMPLETED  7.000E-02
 STEP TIME COMPLETED       7.000E-02,  TOTAL TIME COMPLETED        7.000E-02
  
     ASYNCHRONOUS OUTPUT DATABASE FRAME FLUSH STARTED
  


  INCREMENT    14 STARTS. ATTEMPT NUMBER  1, TIME INCREMENT  1.000E-02

  NUMBER OF EQUATIONS =      3708     NUMBER OF RHS =    1
  NUMBER OF FLOATING PT. OPERATIONS =  9.31E+07

  USING THE DIRECT SOLVER WITH   7 PROCESSORS

     CHECK POINT   START OF SOLVER    

     CHECK POINT  END OF SOLVER       

       ELAPSED USER TIME (SEC)      =   0.0000    
       ELAPSED SYSTEM TIME (SEC)    =   0.0000    
       ELAPSED TOTAL CPU TIME (SEC) =   0.0000    
       ELAPSED WALLCLOCK TIME (SEC) =          0

               CONVERGENCE CHECKS FOR EQUILIBRIUM ITERATION     1


 AVERAGE FORCE                      0.617       TIME AVG. FORCE       0.219    
 LARGEST RESIDUAL FORCE             3.572E-06   AT NODE        221   DOF  1
   INSTANCE: PTOP                                                                            
 LARGEST INCREMENT OF DISP.         3.001E-02   AT NODE         57   DOF  3
   INSTANCE: PTOP                                                                            
 LARGEST CORRECTION TO DISP.       -2.448E-05   AT NODE          2   DOF  1
   INSTANCE: PBOT                                                                            
          THE FORCE     EQUILIBRIUM EQUATIONS HAVE CONVERGED

 AVERAGE MOMENT                      0.00       TIME AVG. MOMENT      0.413    
                                                (FROM FORCE     FIELD)
 LARGEST RESIDUAL MOMENT           -3.970E-08   AT NODE          2   DOF  5
   INSTANCE:                                                                                 
 LARGEST INCREMENT OF ROTATION     -3.716E-12   AT NODE          2   DOF  5
   INSTANCE: {assembly node}                                                                 
 LARGEST CORRECTION TO ROTATION    -1.419E-11   AT NODE          2   DOF  5
   INSTANCE: {assembly node}                                                                 
          THERE IS ZERO MOMENT    EVERYWHERE

 ITERATION SUMMARY FOR THE INCREMENT:   1 TOTAL ITERATIONS, OF WHICH
   0 ARE SEVERE DISCONTINUITY ITERATIONS AND  1 ARE EQUILIBRIUM ITERATIONS.

 TIME INCREMENT COMPLETED  1.000E-02,  FRACTION OF STEP COMPLETED  8.000E-02
 STEP TIME COMPLETED       8.000E-02,  TOTAL TIME COMPLETED        8.000E-02
  
     ASYNCHRONOUS OUTPUT DATABASE FRAME FLUSH STARTED
  


  INCREMENT    15 STARTS. ATTEMPT NUMBER  1, TIME INCREMENT  1.000E-02

  NUMBER OF EQUATIONS =      3708     NUMBER OF RHS =    1
  NUMBER OF FLOATING PT. OPERATIONS =  9.31E+07

  USING THE DIRECT SOLVER WITH   7 PROCESSORS

     CHECK POINT   START OF SOLVER    

     CHECK POINT  END OF SOLVER       

       ELAPSED USER TIME (SEC)      =  0.20000    
       ELAPSED SYSTEM TIME (SEC)    =   0.0000    
       ELAPSED TOTAL CPU TIME (SEC) =  0.20000    
       ELAPSED WALLCLOCK TIME (SEC) =          0

               CONVERGENCE CHECKS FOR EQUILIBRIUM ITERATION     1


 AVERAGE FORCE                      0.696       TIME AVG. FORCE       0.251    
 LARGEST RESIDUAL FORCE             4.015E-06   AT NODE        200   DOF  1
   INSTANCE: PBOT                                                                            
 LARGEST INCREMENT OF DISP.         3.001E-02   AT NODE         58   DOF  3
   INSTANCE: PTOP                                                                            
 LARGEST CORRECTION TO DISP.       -2.448E-05   AT NODE         10   DOF  1
   INSTANCE: PTOP                                                                            
          THE FORCE     EQUILIBRIUM EQUATIONS HAVE CONVERGED

 AVERAGE MOMENT                      0.00       TIME AVG. MOMENT      0.480    
                                                (FROM FORCE     FIELD)
 LARGEST RESIDUAL MOMENT            3.558E-08   AT NODE          1   DOF  5
   INSTANCE:                                                                                 
 LARGEST INCREMENT OF ROTATION      1.275E-12   AT NODE          2   DOF  5
   INSTANCE: {assembly node}                                                                 
 LARGEST CORRECTION TO ROTATION     4.992E-12   AT NODE          2   DOF  5
   INSTANCE: {assembly node}                                                                 
          THERE IS ZERO MOMENT    EVERYWHERE

 ITERATION SUMMARY FOR THE INCREMENT:   1 TOTAL ITERATIONS, OF WHICH
   0 ARE SEVERE DISCONTINUITY ITERATIONS AND  1 ARE EQUILIBRIUM ITERATIONS.

 TIME INCREMENT COMPLETED  1.000E-02,  FRACTION OF STEP COMPLETED  9.000E-02
 STEP TIME COMPLETED       9.000E-02,  TOTAL TIME COMPLETED        9.000E-02
  
     ASYNCHRONOUS OUTPUT DATABASE FRAME FLUSH STARTED
  


  INCREMENT    16 STARTS. ATTEMPT NUMBER  1, TIME INCREMENT  1.000E-02

  NUMBER OF EQUATIONS =      3708     NUMBER OF RHS =    1
  NUMBER OF FLOATING PT. OPERATIONS =  9.31E+07

  USING THE DIRECT SOLVER WITH   7 PROCESSORS

     CHECK POINT   START OF SOLVER    

     CHECK POINT  END OF SOLVER       

       ELAPSED USER TIME (SEC)      =  0.10000    
       ELAPSED SYSTEM TIME (SEC)    =   0.0000    
       ELAPSED TOTAL CPU TIME (SEC) =  0.10000    
       ELAPSED WALLCLOCK TIME (SEC) =          0

               CONVERGENCE CHECKS FOR EQUILIBRIUM ITERATION     1


 AVERAGE FORCE                      0.775       TIME AVG. FORCE       0.284    
 LARGEST RESIDUAL FORCE            -4.566E-06   AT NODE        183   DOF  3
   INSTANCE: CEINST                                                                          
 LARGEST INCREMENT OF DISP.         3.001E-02   AT NODE         57   DOF  3
   INSTANCE: PTOP                                                                            
 LARGEST CORRECTION TO DISP.       -2.448E-05   AT NODE          2   DOF  1
   INSTANCE: PBOT                                                                            
          THE FORCE     EQUILIBRIUM EQUATIONS HAVE CONVERGED

 AVERAGE MOMENT                      0.00       TIME AVG. MOMENT      0.549    
                                                (FROM FORCE     FIELD)
 LARGEST RESIDUAL MOMENT           -3.290E-08   AT NODE          2   DOF  5
   INSTANCE:                                                                                 
 LARGEST INCREMENT OF ROTATION     -3.593E-13   AT NODE          2   DOF  5
   INSTANCE: {assembly node}                                                                 
 LARGEST CORRECTION TO ROTATION    -1.634E-12   AT NODE          2   DOF  5
   INSTANCE: {assembly node}                                                                 
          THERE IS ZERO MOMENT    EVERYWHERE

 ITERATION SUMMARY FOR THE INCREMENT:   1 TOTAL ITERATIONS, OF WHICH
   0 ARE SEVERE DISCONTINUITY ITERATIONS AND  1 ARE EQUILIBRIUM ITERATIONS.

 TIME INCREMENT COMPLETED  1.000E-02,  FRACTION OF STEP COMPLETED  0.100    
 STEP TIME COMPLETED       0.100    ,  TOTAL TIME COMPLETED        0.100    
  
     ASYNCHRONOUS OUTPUT DATABASE FRAME FLUSH STARTED
  


  INCREMENT    17 STARTS. ATTEMPT NUMBER  1, TIME INCREMENT  1.000E-02

  NUMBER OF EQUATIONS =      3708     NUMBER OF RHS =    1
  NUMBER OF FLOATING PT. OPERATIONS =  9.31E+07

  USING THE DIRECT SOLVER WITH   7 PROCESSORS

     CHECK POINT   START OF SOLVER    

     CHECK POINT  END OF SOLVER       

       ELAPSED USER TIME (SEC)      =  0.10000    
       ELAPSED SYSTEM TIME (SEC)    =  0.10000    
       ELAPSED TOTAL CPU TIME (SEC) =  0.20000    
       ELAPSED WALLCLOCK TIME (SEC) =          0

               CONVERGENCE CHECKS FOR EQUILIBRIUM ITERATION     1


 AVERAGE FORCE                      0.852       TIME AVG. FORCE       0.317    
 LARGEST RESIDUAL FORCE             5.205E-06   AT NODE        183   DOF  3
   INSTANCE: CEINST                                                                          
 LARGEST INCREMENT OF DISP.         3.001E-02   AT NODE         58   DOF  3
   INSTANCE: PTOP                                                                            
 LARGEST CORRECTION TO DISP.       -2.448E-05   AT NODE         10   DOF  1
   INSTANCE: PTOP                                                                            
          THE FORCE     EQUILIBRIUM EQUATIONS HAVE CONVERGED

 AVERAGE MOMENT                      0.00       TIME AVG. MOMENT      0.621    
                                                (FROM FORCE     FIELD)
 LARGEST RESIDUAL MOMENT            2.839E-08   AT NODE          1   DOF  5
   INSTANCE:                                                                                 
 LARGEST INCREMENT OF ROTATION      9.132E-14   AT NODE          2   DOF  5
   INSTANCE: {assembly node}                                                                 
 LARGEST CORRECTION TO ROTATION     4.506E-13   AT NODE          2   DOF  5
   INSTANCE: {assembly node}                                                                 
          THERE IS ZERO MOMENT    EVERYWHERE

 ITERATION SUMMARY FOR THE INCREMENT:   1 TOTAL ITERATIONS, OF WHICH
   0 ARE SEVERE DISCONTINUITY ITERATIONS AND  1 ARE EQUILIBRIUM ITERATIONS.

 TIME INCREMENT COMPLETED  1.000E-02,  FRACTION OF STEP COMPLETED  0.110    
 STEP TIME COMPLETED       0.110    ,  TOTAL TIME COMPLETED        0.110    
  
     ASYNCHRONOUS OUTPUT DATABASE FRAME FLUSH STARTED
  


  INCREMENT    18 STARTS. ATTEMPT NUMBER  1, TIME INCREMENT  1.000E-02

  NUMBER OF EQUATIONS =      3708     NUMBER OF RHS =    1
  NUMBER OF FLOATING PT. OPERATIONS =  9.31E+07

  USING THE DIRECT SOLVER WITH   7 PROCESSORS

     CHECK POINT   START OF SOLVER    

     CHECK POINT  END OF SOLVER       

       ELAPSED USER TIME (SEC)      =   0.0000    
       ELAPSED SYSTEM TIME (SEC)    =   0.0000    
       ELAPSED TOTAL CPU TIME (SEC) =   0.0000    
       ELAPSED WALLCLOCK TIME (SEC) =          0

               CONVERGENCE CHECKS FOR EQUILIBRIUM ITERATION     1


 AVERAGE FORCE                      0.931       TIME AVG. FORCE       0.351    
 LARGEST RESIDUAL FORCE             5.345E-06   AT NODE        200   DOF  1
   INSTANCE: PBOT                                                                            
 LARGEST INCREMENT OF DISP.         3.001E-02   AT NODE         58   DOF  3
   INSTANCE: PTOP                                                                            
 LARGEST CORRECTION TO DISP.       -2.448E-05   AT NODE         10   DOF  1
   INSTANCE: PTOP                                                                            
          THE FORCE     EQUILIBRIUM EQUATIONS HAVE CONVERGED

 AVERAGE MOMENT                      0.00       TIME AVG. MOMENT      0.694    
                                                (FROM FORCE     FIELD)
 LARGEST RESIDUAL MOMENT            2.417E-08   AT NODE          1   DOF  5
   INSTANCE:                                                                                 
 LARGEST INCREMENT OF ROTATION      3.057E-14   AT NODE          1   DOF  5
   INSTANCE: {assembly node}                                                                 
 LARGEST CORRECTION TO ROTATION    -6.380E-14   AT NODE          2   DOF  5
   INSTANCE: {assembly node}                                                                 
          THERE IS ZERO MOMENT    EVERYWHERE

 ITERATION SUMMARY FOR THE INCREMENT:   1 TOTAL ITERATIONS, OF WHICH
   0 ARE SEVERE DISCONTINUITY ITERATIONS AND  1 ARE EQUILIBRIUM ITERATIONS.

 TIME INCREMENT COMPLETED  1.000E-02,  FRACTION OF STEP COMPLETED  0.120    
 STEP TIME COMPLETED       0.120    ,  TOTAL TIME COMPLETED        0.120    
  
     ASYNCHRONOUS OUTPUT DATABASE FRAME FLUSH STARTED
  


  INCREMENT    19 STARTS. ATTEMPT NUMBER  1, TIME INCREMENT  1.000E-02

  NUMBER OF EQUATIONS =      3708     NUMBER OF RHS =    1
  NUMBER OF FLOATING PT. OPERATIONS =  9.31E+07

  USING THE DIRECT SOLVER WITH   7 PROCESSORS

     CHECK POINT   START OF SOLVER    

     CHECK POINT  END OF SOLVER       

       ELAPSED USER TIME (SEC)      =  0.20000    
       ELAPSED SYSTEM TIME (SEC)    =   0.0000    
       ELAPSED TOTAL CPU TIME (SEC) =  0.20000    
       ELAPSED WALLCLOCK TIME (SEC) =          0

               CONVERGENCE CHECKS FOR EQUILIBRIUM ITERATION     1


 AVERAGE FORCE                       1.01       TIME AVG. FORCE       0.386    
 LARGEST RESIDUAL FORCE             5.788E-06   AT NODE        207   DOF  1
   INSTANCE: PBOT                                                                            
 LARGEST INCREMENT OF DISP.         3.001E-02   AT NODE         57   DOF  3
   INSTANCE: PTOP                                                                            
 LARGEST CORRECTION TO DISP.       -2.448E-05   AT NODE          1   DOF  1
   INSTANCE: PTOP                                                                            
          THE FORCE     EQUILIBRIUM EQUATIONS HAVE CONVERGED

 AVERAGE MOMENT                      0.00       TIME AVG. MOMENT      0.769    
                                                (FROM FORCE     FIELD)
 LARGEST RESIDUAL MOMENT            2.158E-08   AT NODE          1   DOF  5
   INSTANCE:                                                                                 
 LARGEST INCREMENT OF ROTATION     -5.963E-14   AT NODE          2   DOF  5
   INSTANCE: {assembly node}                                                                 
 LARGEST CORRECTION TO ROTATION    -8.892E-14   AT NODE          1   DOF  5
   INSTANCE: {assembly node}                                                                 
          THERE IS ZERO MOMENT    EVERYWHERE

 ITERATION SUMMARY FOR THE INCREMENT:   1 TOTAL ITERATIONS, OF WHICH
   0 ARE SEVERE DISCONTINUITY ITERATIONS AND  1 ARE EQUILIBRIUM ITERATIONS.

 TIME INCREMENT COMPLETED  1.000E-02,  FRACTION OF STEP COMPLETED  0.130    
 STEP TIME COMPLETED       0.130    ,  TOTAL TIME COMPLETED        0.130    
  
     ASYNCHRONOUS OUTPUT DATABASE FRAME FLUSH STARTED
  


  INCREMENT    20 STARTS. ATTEMPT NUMBER  1, TIME INCREMENT  1.000E-02

  NUMBER OF EQUATIONS =      3708     NUMBER OF RHS =    1
  NUMBER OF FLOATING PT. OPERATIONS =  9.31E+07

  USING THE DIRECT SOLVER WITH   7 PROCESSORS

     CHECK POINT   START OF SOLVER    

     CHECK POINT  END OF SOLVER       

       ELAPSED USER TIME (SEC)      =  0.10000    
       ELAPSED SYSTEM TIME (SEC)    =   0.0000    
       ELAPSED TOTAL CPU TIME (SEC) =  0.10000    
       ELAPSED WALLCLOCK TIME (SEC) =          0

               CONVERGENCE CHECKS FOR EQUILIBRIUM ITERATION     1


 AVERAGE FORCE                       1.09       TIME AVG. FORCE       0.421    
 LARGEST RESIDUAL FORCE             6.231E-06   AT NODE        200   DOF  1
   INSTANCE: PBOT                                                                            
 LARGEST INCREMENT OF DISP.         3.001E-02   AT NODE         58   DOF  3
   INSTANCE: PTOP                                                                            
 LARGEST CORRECTION TO DISP.       -2.448E-05   AT NODE         10   DOF  1
   INSTANCE: PTOP                                                                            
          THE FORCE     EQUILIBRIUM EQUATIONS HAVE CONVERGED

 AVERAGE MOMENT                      0.00       TIME AVG. MOMENT      0.844    
                                                (FROM FORCE     FIELD)
 LARGEST RESIDUAL MOMENT            1.614E-08   AT NODE          1   DOF  5
   INSTANCE:                                                                                 
 LARGEST INCREMENT OF ROTATION      2.322E-14   AT NODE          2   DOF  5
   INSTANCE: {assembly node}                                                                 
 LARGEST CORRECTION TO ROTATION     8.286E-14   AT NODE          2   DOF  5
   INSTANCE: {assembly node}                                                                 
          THERE IS ZERO MOMENT    EVERYWHERE

 ITERATION SUMMARY FOR THE INCREMENT:   1 TOTAL ITERATIONS, OF WHICH
   0 ARE SEVERE DISCONTINUITY ITERATIONS AND  1 ARE EQUILIBRIUM ITERATIONS.

 TIME INCREMENT COMPLETED  1.000E-02,  FRACTION OF STEP COMPLETED  0.140    
 STEP TIME COMPLETED       0.140    ,  TOTAL TIME COMPLETED        0.140    
  
     ASYNCHRONOUS OUTPUT DATABASE FRAME FLUSH STARTED
  


  INCREMENT    21 STARTS. ATTEMPT NUMBER  1, TIME INCREMENT  1.000E-02

  NUMBER OF EQUATIONS =      3708     NUMBER OF RHS =    1
  NUMBER OF FLOATING PT. OPERATIONS =  9.31E+07

  USING THE DIRECT SOLVER WITH   7 PROCESSORS

     CHECK POINT   START OF SOLVER    

     CHECK POINT  END OF SOLVER       

       ELAPSED USER TIME (SEC)      =  0.10000    
       ELAPSED SYSTEM TIME (SEC)    =   0.0000    
       ELAPSED TOTAL CPU TIME (SEC) =  0.10000    
       ELAPSED WALLCLOCK TIME (SEC) =          0

               CONVERGENCE CHECKS FOR EQUILIBRIUM ITERATION     1


 AVERAGE FORCE                       1.17       TIME AVG. FORCE       0.457    
 LARGEST RESIDUAL FORCE             6.675E-06   AT NODE        207   DOF  1
   INSTANCE: PBOT                                                                            
 LARGEST INCREMENT OF DISP.         3.001E-02   AT NODE         58   DOF  3
   INSTANCE: PTOP                                                                            
 LARGEST CORRECTION TO DISP.       -2.449E-05   AT NODE          1   DOF  1
   INSTANCE: PTOP                                                                            
          THE FORCE     EQUILIBRIUM EQUATIONS HAVE CONVERGED

 AVERAGE MOMENT                      0.00       TIME AVG. MOMENT      0.921    
                                                (FROM FORCE     FIELD)
 LARGEST RESIDUAL MOMENT            1.266E-08   AT NODE          1   DOF  5
   INSTANCE:                                                                                 
 LARGEST INCREMENT OF ROTATION     -9.929E-14   AT NODE          2   DOF  5
   INSTANCE: {assembly node}                                                                 
 LARGEST CORRECTION TO ROTATION    -1.225E-13   AT NODE          2   DOF  5
   INSTANCE: {assembly node}                                                                 
          THERE IS ZERO MOMENT    EVERYWHERE

 ITERATION SUMMARY FOR THE INCREMENT:   1 TOTAL ITERATIONS, OF WHICH
   0 ARE SEVERE DISCONTINUITY ITERATIONS AND  1 ARE EQUILIBRIUM ITERATIONS.

 TIME INCREMENT COMPLETED  1.000E-02,  FRACTION OF STEP COMPLETED  0.150    
 STEP TIME COMPLETED       0.150    ,  TOTAL TIME COMPLETED        0.150    
  
     ASYNCHRONOUS OUTPUT DATABASE FRAME FLUSH STARTED
  


  INCREMENT    22 STARTS. ATTEMPT NUMBER  1, TIME INCREMENT  1.000E-02

  NUMBER OF EQUATIONS =      3708     NUMBER OF RHS =    1
  NUMBER OF FLOATING PT. OPERATIONS =  9.31E+07

  USING THE DIRECT SOLVER WITH   7 PROCESSORS

     CHECK POINT   START OF SOLVER    

     CHECK POINT  END OF SOLVER       

       ELAPSED USER TIME (SEC)      =  0.20000    
       ELAPSED SYSTEM TIME (SEC)    =   0.0000    
       ELAPSED TOTAL CPU TIME (SEC) =  0.20000    
       ELAPSED WALLCLOCK TIME (SEC) =          0

               CONVERGENCE CHECKS FOR EQUILIBRIUM ITERATION     1


 AVERAGE FORCE                       1.25       TIME AVG. FORCE       0.492    
 LARGEST RESIDUAL FORCE             7.118E-06   AT NODE        207   DOF  1
   INSTANCE: PBOT                                                                            
 LARGEST INCREMENT OF DISP.         3.002E-02   AT NODE         57   DOF  3
   INSTANCE: PTOP                                                                            
 LARGEST CORRECTION TO DISP.       -2.449E-05   AT NODE          1   DOF  1
   INSTANCE: PTOP                                                                            
          THE FORCE     EQUILIBRIUM EQUATIONS HAVE CONVERGED

 AVERAGE MOMENT                      0.00       TIME AVG. MOMENT      0.999    
                                                (FROM FORCE     FIELD)
 LARGEST RESIDUAL MOMENT            8.645E-09   AT NODE          1   DOF  5
   INSTANCE:                                                                                 
 LARGEST INCREMENT OF ROTATION      4.776E-14   AT NODE          2   DOF  5
   INSTANCE: {assembly node}                                                                 
 LARGEST CORRECTION TO ROTATION     1.470E-13   AT NODE          2   DOF  5
   INSTANCE: {assembly node}                                                                 
          THERE IS ZERO MOMENT    EVERYWHERE

 ITERATION SUMMARY FOR THE INCREMENT:   1 TOTAL ITERATIONS, OF WHICH
   0 ARE SEVERE DISCONTINUITY ITERATIONS AND  1 ARE EQUILIBRIUM ITERATIONS.

 TIME INCREMENT COMPLETED  1.000E-02,  FRACTION OF STEP COMPLETED  0.160    
 STEP TIME COMPLETED       0.160    ,  TOTAL TIME COMPLETED        0.160    
  
     ASYNCHRONOUS OUTPUT DATABASE FRAME FLUSH STARTED
  


  INCREMENT    23 STARTS. ATTEMPT NUMBER  1, TIME INCREMENT  1.000E-02

  NUMBER OF EQUATIONS =      3708     NUMBER OF RHS =    1
  NUMBER OF FLOATING PT. OPERATIONS =  9.31E+07

  USING THE DIRECT SOLVER WITH   7 PROCESSORS

     CHECK POINT   START OF SOLVER    

     CHECK POINT  END OF SOLVER       

       ELAPSED USER TIME (SEC)      =   0.0000    
       ELAPSED SYSTEM TIME (SEC)    =   0.0000    
       ELAPSED TOTAL CPU TIME (SEC) =   0.0000    
       ELAPSED WALLCLOCK TIME (SEC) =          0

               CONVERGENCE CHECKS FOR EQUILIBRIUM ITERATION     1


 AVERAGE FORCE                       1.32       TIME AVG. FORCE       0.529    
 LARGEST RESIDUAL FORCE             7.561E-06   AT NODE        200   DOF  1
   INSTANCE: PBOT                                                                            
 LARGEST INCREMENT OF DISP.         3.002E-02   AT NODE         58   DOF  3
   INSTANCE: PTOP                                                                            
 LARGEST CORRECTION TO DISP.       -2.449E-05   AT NODE         10   DOF  1
   INSTANCE: PTOP                                                                            
          THE FORCE     EQUILIBRIUM EQUATIONS HAVE CONVERGED

 AVERAGE MOMENT                      0.00       TIME AVG. MOMENT       1.08    
                                                (FROM FORCE     FIELD)
 LARGEST RESIDUAL MOMENT           -5.488E-09   AT NODE          2   DOF  5
   INSTANCE:                                                                                 
 LARGEST INCREMENT OF ROTATION     -2.286E-14   AT NODE          2   DOF  5
   INSTANCE: {assembly node}                                                                 
 LARGEST CORRECTION TO ROTATION    -7.062E-14   AT NODE          2   DOF  5
   INSTANCE: {assembly node}                                                                 
          THERE IS ZERO MOMENT    EVERYWHERE

 ITERATION SUMMARY FOR THE INCREMENT:   1 TOTAL ITERATIONS, OF WHICH
   0 ARE SEVERE DISCONTINUITY ITERATIONS AND  1 ARE EQUILIBRIUM ITERATIONS.

 TIME INCREMENT COMPLETED  1.000E-02,  FRACTION OF STEP COMPLETED  0.170    
 STEP TIME COMPLETED       0.170    ,  TOTAL TIME COMPLETED        0.170    
  
     ASYNCHRONOUS OUTPUT DATABASE FRAME FLUSH STARTED
  


  INCREMENT    24 STARTS. ATTEMPT NUMBER  1, TIME INCREMENT  1.000E-02

  NUMBER OF EQUATIONS =      3708     NUMBER OF RHS =    1
  NUMBER OF FLOATING PT. OPERATIONS =  9.31E+07

  USING THE DIRECT SOLVER WITH   7 PROCESSORS

     CHECK POINT   START OF SOLVER    

     CHECK POINT  END OF SOLVER       

       ELAPSED USER TIME (SEC)      =   0.0000    
       ELAPSED SYSTEM TIME (SEC)    =   0.0000    
       ELAPSED TOTAL CPU TIME (SEC) =   0.0000    
       ELAPSED WALLCLOCK TIME (SEC) =          0

               CONVERGENCE CHECKS FOR EQUILIBRIUM ITERATION     1


 AVERAGE FORCE                       1.40       TIME AVG. FORCE       0.565    
 LARGEST RESIDUAL FORCE             8.004E-06   AT NODE        207   DOF  1
   INSTANCE: PBOT                                                                            
 LARGEST INCREMENT OF DISP.         3.002E-02   AT NODE         58   DOF  3
   INSTANCE: PTOP                                                                            
 LARGEST CORRECTION TO DISP.       -2.449E-05   AT NODE          1   DOF  1
   INSTANCE: PTOP                                                                            
          THE FORCE     EQUILIBRIUM EQUATIONS HAVE CONVERGED

 AVERAGE MOMENT                      0.00       TIME AVG. MOMENT       1.16    
                                                (FROM FORCE     FIELD)
 LARGEST RESIDUAL MOMENT            1.397E-09   AT NODE          1   DOF  5
   INSTANCE:                                                                                 
 LARGEST INCREMENT OF ROTATION      7.074E-14   AT NODE          1   DOF  5
   INSTANCE: {assembly node}                                                                 
 LARGEST CORRECTION TO ROTATION     9.273E-14   AT NODE          2   DOF  5
   INSTANCE: {assembly node}                                                                 
          THERE IS ZERO MOMENT    EVERYWHERE

 ITERATION SUMMARY FOR THE INCREMENT:   1 TOTAL ITERATIONS, OF WHICH
   0 ARE SEVERE DISCONTINUITY ITERATIONS AND  1 ARE EQUILIBRIUM ITERATIONS.

 TIME INCREMENT COMPLETED  1.000E-02,  FRACTION OF STEP COMPLETED  0.180    
 STEP TIME COMPLETED       0.180    ,  TOTAL TIME COMPLETED        0.180    
  
     ASYNCHRONOUS OUTPUT DATABASE FRAME FLUSH STARTED
  


  INCREMENT    25 STARTS. ATTEMPT NUMBER  1, TIME INCREMENT  1.000E-02

  NUMBER OF EQUATIONS =      3708     NUMBER OF RHS =    1
  NUMBER OF FLOATING PT. OPERATIONS =  9.31E+07

  USING THE DIRECT SOLVER WITH   7 PROCESSORS

     CHECK POINT   START OF SOLVER    

     CHECK POINT  END OF SOLVER       

       ELAPSED USER TIME (SEC)      =  0.10000    
       ELAPSED SYSTEM TIME (SEC)    =  0.10000    
       ELAPSED TOTAL CPU TIME (SEC) =  0.20000    
       ELAPSED WALLCLOCK TIME (SEC) =          0

               CONVERGENCE CHECKS FOR EQUILIBRIUM ITERATION     1


 AVERAGE FORCE                       1.48       TIME AVG. FORCE       0.602    
 LARGEST RESIDUAL FORCE            -9.249E-06   AT NODE        183   DOF  3
   INSTANCE: CEINST                                                                          
 LARGEST INCREMENT OF DISP.         3.002E-02   AT NODE         57   DOF  3
   INSTANCE: PTOP                                                                            
 LARGEST CORRECTION TO DISP.       -2.449E-05   AT NODE          1   DOF  1
   INSTANCE: PTOP                                                                            
          THE FORCE     EQUILIBRIUM EQUATIONS HAVE CONVERGED

 AVERAGE MOMENT                      0.00       TIME AVG. MOMENT       1.24    
                                                (FROM FORCE     FIELD)
 LARGEST RESIDUAL MOMENT           -4.727E-09   AT NODE          1   DOF  5
   INSTANCE:                                                                                 
 LARGEST INCREMENT OF ROTATION     -2.971E-14   AT NODE          1   DOF  5
   INSTANCE: {assembly node}                                                                 
 LARGEST CORRECTION TO ROTATION    -1.004E-13   AT NODE          1   DOF  5
   INSTANCE: {assembly node}                                                                 
          THERE IS ZERO MOMENT    EVERYWHERE

 ITERATION SUMMARY FOR THE INCREMENT:   1 TOTAL ITERATIONS, OF WHICH
   0 ARE SEVERE DISCONTINUITY ITERATIONS AND  1 ARE EQUILIBRIUM ITERATIONS.

 TIME INCREMENT COMPLETED  1.000E-02,  FRACTION OF STEP COMPLETED  0.190    
 STEP TIME COMPLETED       0.190    ,  TOTAL TIME COMPLETED        0.190    
  
     ASYNCHRONOUS OUTPUT DATABASE FRAME FLUSH STARTED
  


  INCREMENT    26 STARTS. ATTEMPT NUMBER  1, TIME INCREMENT  1.000E-02

  NUMBER OF EQUATIONS =      3708     NUMBER OF RHS =    1
  NUMBER OF FLOATING PT. OPERATIONS =  9.31E+07

  USING THE DIRECT SOLVER WITH   7 PROCESSORS

     CHECK POINT   START OF SOLVER    

     CHECK POINT  END OF SOLVER       

       ELAPSED USER TIME (SEC)      =   0.0000    
       ELAPSED SYSTEM TIME (SEC)    =   0.0000    
       ELAPSED TOTAL CPU TIME (SEC) =   0.0000    
       ELAPSED WALLCLOCK TIME (SEC) =          0

               CONVERGENCE CHECKS FOR EQUILIBRIUM ITERATION     1


 AVERAGE FORCE                       1.56       TIME AVG. FORCE       0.639    
 LARGEST RESIDUAL FORCE             8.891E-06   AT NODE        200   DOF  1
   INSTANCE: PBOT                                                                            
 LARGEST INCREMENT OF DISP.         3.002E-02   AT NODE         58   DOF  3
   INSTANCE: PTOP                                                                            
 LARGEST CORRECTION TO DISP.       -2.449E-05   AT NODE         10   DOF  1
   INSTANCE: PTOP                                                                            
          THE FORCE     EQUILIBRIUM EQUATIONS HAVE CONVERGED

 AVERAGE MOMENT                      0.00       TIME AVG. MOMENT       1.32    
                                                (FROM FORCE     FIELD)
 LARGEST RESIDUAL MOMENT            6.885E-09   AT NODE          2   DOF  5
   INSTANCE:                                                                                 
 LARGEST INCREMENT OF ROTATION     -2.556E-14   AT NODE          1   DOF  5
   INSTANCE: {assembly node}                                                                 
 LARGEST CORRECTION TO ROTATION     5.345E-15   AT NODE          2   DOF  5
   INSTANCE: {assembly node}                                                                 
          THERE IS ZERO MOMENT    EVERYWHERE

 ITERATION SUMMARY FOR THE INCREMENT:   1 TOTAL ITERATIONS, OF WHICH
   0 ARE SEVERE DISCONTINUITY ITERATIONS AND  1 ARE EQUILIBRIUM ITERATIONS.

 TIME INCREMENT COMPLETED  1.000E-02,  FRACTION OF STEP COMPLETED  0.200    
 STEP TIME COMPLETED       0.200    ,  TOTAL TIME COMPLETED        0.200    
  
     ASYNCHRONOUS OUTPUT DATABASE FRAME FLUSH STARTED
  


  INCREMENT    27 STARTS. ATTEMPT NUMBER  1, TIME INCREMENT  1.000E-02

  NUMBER OF EQUATIONS =      3708     NUMBER OF RHS =    1
  NUMBER OF FLOATING PT. OPERATIONS =  9.31E+07

  USING THE DIRECT SOLVER WITH   7 PROCESSORS

     CHECK POINT   START OF SOLVER    

     CHECK POINT  END OF SOLVER       

       ELAPSED USER TIME (SEC)      =  0.10000    
       ELAPSED SYSTEM TIME (SEC)    =   0.0000    
       ELAPSED TOTAL CPU TIME (SEC) =  0.10000    
       ELAPSED WALLCLOCK TIME (SEC) =          0

               CONVERGENCE CHECKS FOR EQUILIBRIUM ITERATION     1


 AVERAGE FORCE                       1.64       TIME AVG. FORCE       0.676    
 LARGEST RESIDUAL FORCE             9.334E-06   AT NODE        207   DOF  1
   INSTANCE: PBOT                                                                            
 LARGEST INCREMENT OF DISP.         3.002E-02   AT NODE         57   DOF  3
   INSTANCE: PTOP                                                                            
 LARGEST CORRECTION TO DISP.       -2.449E-05   AT NODE          1   DOF  1
   INSTANCE: PTOP                                                                            
          THE FORCE     EQUILIBRIUM EQUATIONS HAVE CONVERGED

 AVERAGE MOMENT                      0.00       TIME AVG. MOMENT       1.40    
                                                (FROM FORCE     FIELD)
 LARGEST RESIDUAL MOMENT            1.148E-08   AT NODE          2   DOF  5
   INSTANCE:                                                                                 
 LARGEST INCREMENT OF ROTATION      2.569E-14   AT NODE          1   DOF  5
   INSTANCE: {assembly node}                                                                 
 LARGEST CORRECTION TO ROTATION     5.125E-14   AT NODE          1   DOF  5
   INSTANCE: {assembly node}                                                                 
          THERE IS ZERO MOMENT    EVERYWHERE

 ITERATION SUMMARY FOR THE INCREMENT:   1 TOTAL ITERATIONS, OF WHICH
   0 ARE SEVERE DISCONTINUITY ITERATIONS AND  1 ARE EQUILIBRIUM ITERATIONS.

 TIME INCREMENT COMPLETED  1.000E-02,  FRACTION OF STEP COMPLETED  0.210    
 STEP TIME COMPLETED       0.210    ,  TOTAL TIME COMPLETED        0.210    
  
     ASYNCHRONOUS OUTPUT DATABASE FRAME FLUSH STARTED
  


  INCREMENT    28 STARTS. ATTEMPT NUMBER  1, TIME INCREMENT  1.000E-02

  NUMBER OF EQUATIONS =      3708     NUMBER OF RHS =    1
  NUMBER OF FLOATING PT. OPERATIONS =  9.31E+07

  USING THE DIRECT SOLVER WITH   7 PROCESSORS

     CHECK POINT   START OF SOLVER    

     CHECK POINT  END OF SOLVER       

       ELAPSED USER TIME (SEC)      =  0.10000    
       ELAPSED SYSTEM TIME (SEC)    =   0.0000    
       ELAPSED TOTAL CPU TIME (SEC) =  0.10000    
       ELAPSED WALLCLOCK TIME (SEC) =          0

               CONVERGENCE CHECKS FOR EQUILIBRIUM ITERATION     1


 AVERAGE FORCE                       1.72       TIME AVG. FORCE       0.713    
 LARGEST RESIDUAL FORCE             9.777E-06   AT NODE        200   DOF  1
   INSTANCE: PBOT                                                                            
 LARGEST INCREMENT OF DISP.         3.002E-02   AT NODE         57   DOF  3
   INSTANCE: PTOP                                                                            
 LARGEST CORRECTION TO DISP.       -2.449E-05   AT NODE         10   DOF  1
   INSTANCE: PTOP                                                                            
          THE FORCE     EQUILIBRIUM EQUATIONS HAVE CONVERGED

 AVERAGE MOMENT                      0.00       TIME AVG. MOMENT       1.48    
                                                (FROM FORCE     FIELD)
 LARGEST RESIDUAL MOMENT            1.619E-08   AT NODE          2   DOF  5
   INSTANCE:                                                                                 
 LARGEST INCREMENT OF ROTATION     -2.949E-14   AT NODE          2   DOF  5
   INSTANCE: {assembly node}                                                                 
 LARGEST CORRECTION TO ROTATION    -5.460E-14   AT NODE          1   DOF  5
   INSTANCE: {assembly node}                                                                 
          THERE IS ZERO MOMENT    EVERYWHERE

 ITERATION SUMMARY FOR THE INCREMENT:   1 TOTAL ITERATIONS, OF WHICH
   0 ARE SEVERE DISCONTINUITY ITERATIONS AND  1 ARE EQUILIBRIUM ITERATIONS.

 TIME INCREMENT COMPLETED  1.000E-02,  FRACTION OF STEP COMPLETED  0.220    
 STEP TIME COMPLETED       0.220    ,  TOTAL TIME COMPLETED        0.220    
  
     ASYNCHRONOUS OUTPUT DATABASE FRAME FLUSH STARTED
  


  INCREMENT    29 STARTS. ATTEMPT NUMBER  1, TIME INCREMENT  1.000E-02

  NUMBER OF EQUATIONS =      3708     NUMBER OF RHS =    1
  NUMBER OF FLOATING PT. OPERATIONS =  9.31E+07

  USING THE DIRECT SOLVER WITH   7 PROCESSORS

     CHECK POINT   START OF SOLVER    

     CHECK POINT  END OF SOLVER       

       ELAPSED USER TIME (SEC)      =   0.0000    
       ELAPSED SYSTEM TIME (SEC)    =   0.0000    
       ELAPSED TOTAL CPU TIME (SEC) =   0.0000    
       ELAPSED WALLCLOCK TIME (SEC) =          0

               CONVERGENCE CHECKS FOR EQUILIBRIUM ITERATION     1


 AVERAGE FORCE                       1.80       TIME AVG. FORCE       0.750    
 LARGEST RESIDUAL FORCE             1.022E-05   AT NODE        207   DOF  1
   INSTANCE: PBOT                                                                            
 LARGEST INCREMENT OF DISP.         3.002E-02   AT NODE         57   DOF  3
   INSTANCE: PTOP                                                                            
 LARGEST CORRECTION TO DISP.       -2.449E-05   AT NODE          1   DOF  1
   INSTANCE: PTOP                                                                            
          THE FORCE     EQUILIBRIUM EQUATIONS HAVE CONVERGED

 AVERAGE MOMENT                      0.00       TIME AVG. MOMENT       1.56    
                                                (FROM FORCE     FIELD)
 LARGEST RESIDUAL MOMENT            2.059E-08   AT NODE          2   DOF  5
   INSTANCE:                                                                                 
 LARGEST INCREMENT OF ROTATION      3.074E-14   AT NODE          2   DOF  5
   INSTANCE: {assembly node}                                                                 
 LARGEST CORRECTION TO ROTATION     6.024E-14   AT NODE          2   DOF  5
   INSTANCE: {assembly node}                                                                 
          THERE IS ZERO MOMENT    EVERYWHERE

 ITERATION SUMMARY FOR THE INCREMENT:   1 TOTAL ITERATIONS, OF WHICH
   0 ARE SEVERE DISCONTINUITY ITERATIONS AND  1 ARE EQUILIBRIUM ITERATIONS.

 TIME INCREMENT COMPLETED  1.000E-02,  FRACTION OF STEP COMPLETED  0.230    
 STEP TIME COMPLETED       0.230    ,  TOTAL TIME COMPLETED        0.230    
  
     ASYNCHRONOUS OUTPUT DATABASE FRAME FLUSH STARTED
  


  INCREMENT    30 STARTS. ATTEMPT NUMBER  1, TIME INCREMENT  1.000E-02

  NUMBER OF EQUATIONS =      3708     NUMBER OF RHS =    1
  NUMBER OF FLOATING PT. OPERATIONS =  9.31E+07

  USING THE DIRECT SOLVER WITH   7 PROCESSORS

     CHECK POINT   START OF SOLVER    

     CHECK POINT  END OF SOLVER       

       ELAPSED USER TIME (SEC)      =   0.0000    
       ELAPSED SYSTEM TIME (SEC)    =   0.0000    
       ELAPSED TOTAL CPU TIME (SEC) =   0.0000    
       ELAPSED WALLCLOCK TIME (SEC) =          0

               CONVERGENCE CHECKS FOR EQUILIBRIUM ITERATION     1


 AVERAGE FORCE                       1.88       TIME AVG. FORCE       0.788    
 LARGEST RESIDUAL FORCE            -1.111E-05   AT NODE        179   DOF  3
   INSTANCE: CEINST                                                                          
 LARGEST INCREMENT OF DISP.         3.003E-02   AT NODE         58   DOF  3
   INSTANCE: PTOP                                                                            
 LARGEST CORRECTION TO DISP.       -2.449E-05   AT NODE         10   DOF  1
   INSTANCE: PTOP                                                                            
          THE FORCE     EQUILIBRIUM EQUATIONS HAVE CONVERGED

 AVERAGE MOMENT                      0.00       TIME AVG. MOMENT       1.64    
                                                (FROM FORCE     FIELD)
 LARGEST RESIDUAL MOMENT            2.412E-08   AT NODE          2   DOF  5
   INSTANCE:                                                                                 
 LARGEST INCREMENT OF ROTATION     -1.856E-14   AT NODE          2   DOF  5
   INSTANCE: {assembly node}                                                                 
 LARGEST CORRECTION TO ROTATION    -4.930E-14   AT NODE          2   DOF  5
   INSTANCE: {assembly node}                                                                 
          THERE IS ZERO MOMENT    EVERYWHERE

 ITERATION SUMMARY FOR THE INCREMENT:   1 TOTAL ITERATIONS, OF WHICH
   0 ARE SEVERE DISCONTINUITY ITERATIONS AND  1 ARE EQUILIBRIUM ITERATIONS.

 TIME INCREMENT COMPLETED  1.000E-02,  FRACTION OF STEP COMPLETED  0.240    
[...]

       ELAPSED USER TIME (SEC)      =   0.0000    
       ELAPSED SYSTEM TIME (SEC)    =  0.10000    
       ELAPSED TOTAL CPU TIME (SEC) =  0.10000    
       ELAPSED WALLCLOCK TIME (SEC) =          0

               CONVERGENCE CHECKS FOR EQUILIBRIUM ITERATION     7


 AVERAGE FORCE                       3.21       TIME AVG. FORCE        2.10    
 LARGEST RESIDUAL FORCE            -1.293E-03   AT NODE        182   DOF  3
   INSTANCE: CEINST                                                                          
 LARGEST INCREMENT OF DISP.         8.525E-06   AT NODE        164   DOF  3
   INSTANCE: PTOP                                                                            
 LARGEST CORRECTION TO DISP.        1.081E-06   AT NODE        185   DOF  3
   INSTANCE: PTOP                                                                            
          DISP.    CORRECTION TOO LARGE COMPARED TO DISP.    INCREMENT

 AVERAGE MOMENT                      0.00       TIME AVG. MOMENT       4.57    
                                                (FROM FORCE     FIELD)
 LARGEST RESIDUAL MOMENT           -1.008E-08   AT NODE          2   DOF  5
   INSTANCE:                                                                                 
 LARGEST INCREMENT OF ROTATION      4.210E-14   AT NODE          1   DOF  5
   INSTANCE: {assembly node}                                                                 
 LARGEST CORRECTION TO ROTATION     1.253E-13   AT NODE          2   DOF  5
   INSTANCE: {assembly node}                                                                 
          THERE IS ZERO MOMENT    EVERYWHERE

  NUMBER OF EQUATIONS =      3708     NUMBER OF RHS =    1
  NUMBER OF FLOATING PT. OPERATIONS =  9.31E+07

  USING THE DIRECT SOLVER WITH   7 PROCESSORS

     CHECK POINT   START OF SOLVER    

     CHECK POINT  END OF SOLVER       

       ELAPSED USER TIME (SEC)      =  0.20000    
       ELAPSED SYSTEM TIME (SEC)    =   0.0000    
       ELAPSED TOTAL CPU TIME (SEC) =  0.20000    
       ELAPSED WALLCLOCK TIME (SEC) =          0

               CONVERGENCE CHECKS FOR EQUILIBRIUM ITERATION     8


 AVERAGE FORCE                       3.21       TIME AVG. FORCE        2.10    
 LARGEST RESIDUAL FORCE            -1.245E-03   AT NODE        183   DOF  3
   INSTANCE: CEINST                                                                          
 LARGEST INCREMENT OF DISP.        -9.561E-06   AT NODE        164   DOF  3
   INSTANCE: PBOT                                                                            
 LARGEST CORRECTION TO DISP.       -1.036E-06   AT NODE        164   DOF  3
   INSTANCE: PBOT                                                                            
          DISP.    CORRECTION TOO LARGE COMPARED TO DISP.    INCREMENT

 AVERAGE MOMENT                      0.00       TIME AVG. MOMENT       4.57    
                                                (FROM FORCE     FIELD)
 LARGEST RESIDUAL MOMENT            9.633E-09   AT NODE          1   DOF  5
   INSTANCE:                                                                                 
 LARGEST INCREMENT OF ROTATION     -9.228E-15   AT NODE          2   DOF  5
   INSTANCE: {assembly node}                                                                 
 LARGEST CORRECTION TO ROTATION    -4.818E-14   AT NODE          1   DOF  5
   INSTANCE: {assembly node}                                                                 
          THERE IS ZERO MOMENT    EVERYWHERE

  NUMBER OF EQUATIONS =      3708     NUMBER OF RHS =    1
  NUMBER OF FLOATING PT. OPERATIONS =  9.31E+07

  USING THE DIRECT SOLVER WITH   7 PROCESSORS

     CHECK POINT   START OF SOLVER    

     CHECK POINT  END OF SOLVER       

       ELAPSED USER TIME (SEC)      =  0.10000    
       ELAPSED SYSTEM TIME (SEC)    =   0.0000    
       ELAPSED TOTAL CPU TIME (SEC) =  0.10000    
       ELAPSED WALLCLOCK TIME (SEC) =          0

               CONVERGENCE CHECKS FOR EQUILIBRIUM ITERATION     9


 AVERAGE FORCE                       3.21       TIME AVG. FORCE        2.10    
 LARGEST RESIDUAL FORCE            -1.195E-03   AT NODE        182   DOF  3
   INSTANCE: CEINST                                                                          
 LARGEST INCREMENT OF DISP.         1.056E-05   AT NODE        164   DOF  3
   INSTANCE: PTOP                                                                            
 LARGEST CORRECTION TO DISP.        9.965E-07   AT NODE        185   DOF  3
   INSTANCE: PTOP                                                                            
          DISP.    CORRECTION TOO LARGE COMPARED TO DISP.    INCREMENT

 AVERAGE MOMENT                      0.00       TIME AVG. MOMENT       4.57    
                                                (FROM FORCE     FIELD)
 LARGEST RESIDUAL MOMENT           -9.241E-09   AT NODE          2   DOF  5
   INSTANCE:                                                                                 
 LARGEST INCREMENT OF ROTATION      9.950E-14   AT NODE          1   DOF  5
   INSTANCE: {assembly node}                                                                 
 LARGEST CORRECTION TO ROTATION     1.056E-13   AT NODE          1   DOF  5
   INSTANCE: {assembly node}                                                                 
          THERE IS ZERO MOMENT    EVERYWHERE

  NUMBER OF EQUATIONS =      3708     NUMBER OF RHS =    1
  NUMBER OF FLOATING PT. OPERATIONS =  9.31E+07

  USING THE DIRECT SOLVER WITH   7 PROCESSORS

     CHECK POINT   START OF SOLVER    

     CHECK POINT  END OF SOLVER       

       ELAPSED USER TIME (SEC)      =  0.10000    
       ELAPSED SYSTEM TIME (SEC)    =   0.0000    
       ELAPSED TOTAL CPU TIME (SEC) =  0.10000    
       ELAPSED WALLCLOCK TIME (SEC) =          0

               CONVERGENCE CHECKS FOR EQUILIBRIUM ITERATION    10


 AVERAGE FORCE                       3.21       TIME AVG. FORCE        2.10    
 LARGEST RESIDUAL FORCE             1.148E-03   AT NODE        179   DOF  3
   INSTANCE: CEINST                                                                          
 LARGEST INCREMENT OF DISP.         1.151E-05   AT NODE        164   DOF  3
   INSTANCE: PTOP                                                                            
 LARGEST CORRECTION TO DISP.       -9.564E-07   AT NODE        185   DOF  3
   INSTANCE: PBOT                                                                            
          DISP.    CORRECTION TOO LARGE COMPARED TO DISP.    INCREMENT

 AVERAGE MOMENT                      0.00       TIME AVG. MOMENT       4.57    
                                                (FROM FORCE     FIELD)
 LARGEST RESIDUAL MOMENT            8.846E-09   AT NODE          1   DOF  5
   INSTANCE:                                                                                 
 LARGEST INCREMENT OF ROTATION      2.683E-14   AT NODE          1   DOF  5
   INSTANCE: {assembly node}                                                                 
 LARGEST CORRECTION TO ROTATION    -7.267E-14   AT NODE          1   DOF  5
   INSTANCE: {assembly node}                                                                 
          THERE IS ZERO MOMENT    EVERYWHERE

  NUMBER OF EQUATIONS =      3708     NUMBER OF RHS =    1
  NUMBER OF FLOATING PT. OPERATIONS =  9.31E+07

  USING THE DIRECT SOLVER WITH   7 PROCESSORS

     CHECK POINT   START OF SOLVER    

     CHECK POINT  END OF SOLVER       

       ELAPSED USER TIME (SEC)      =   0.0000    
       ELAPSED SYSTEM TIME (SEC)    =   0.0000    
       ELAPSED TOTAL CPU TIME (SEC) =   0.0000    
       ELAPSED WALLCLOCK TIME (SEC) =          0

               CONVERGENCE CHECKS FOR EQUILIBRIUM ITERATION    11


 AVERAGE FORCE                       3.21       TIME AVG. FORCE        2.10    
 LARGEST RESIDUAL FORCE            -1.115E-03   AT NODE        183   DOF  3
   INSTANCE: CEINST                                                                          
 LARGEST INCREMENT OF DISP.         1.243E-05   AT NODE        185   DOF  3
   INSTANCE: PTOP                                                                            
 LARGEST CORRECTION TO DISP.        9.157E-07   AT NODE        185   DOF  3
   INSTANCE: PTOP                                                                            
          DISP.    CORRECTION TOO LARGE COMPARED TO DISP.    INCREMENT

 AVERAGE MOMENT                      0.00       TIME AVG. MOMENT       4.57    
                                                (FROM FORCE     FIELD)
 LARGEST RESIDUAL MOMENT           -8.446E-09   AT NODE          2   DOF  5
   INSTANCE:                                                                                 
 LARGEST INCREMENT OF ROTATION      8.822E-14   AT NODE          1   DOF  5
   INSTANCE: {assembly node}                                                                 
 LARGEST CORRECTION TO ROTATION     6.139E-14   AT NODE          1   DOF  5
   INSTANCE: {assembly node}                                                                 
          THERE IS ZERO MOMENT    EVERYWHERE

  NUMBER OF EQUATIONS =      3708     NUMBER OF RHS =    1
  NUMBER OF FLOATING PT. OPERATIONS =  9.31E+07

  USING THE DIRECT SOLVER WITH   7 PROCESSORS

     CHECK POINT   START OF SOLVER    

     CHECK POINT  END OF SOLVER       

       ELAPSED USER TIME (SEC)      =   0.0000    
       ELAPSED SYSTEM TIME (SEC)    =   0.0000    
       ELAPSED TOTAL CPU TIME (SEC) =   0.0000    
       ELAPSED WALLCLOCK TIME (SEC) =          0

               CONVERGENCE CHECKS FOR EQUILIBRIUM ITERATION    12


 AVERAGE FORCE                       3.21       TIME AVG. FORCE        2.10    
 LARGEST RESIDUAL FORCE            -1.061E-03   AT NODE        182   DOF  3
   INSTANCE: CEINST                                                                          
 LARGEST INCREMENT OF DISP.         1.332E-05   AT NODE        185   DOF  3
   INSTANCE: PTOP                                                                            
 LARGEST CORRECTION TO DISP.       -8.937E-07   AT NODE        185   DOF  3
   INSTANCE: PBOT                                                                            
          DISP.    CORRECTION TOO LARGE COMPARED TO DISP.    INCREMENT

 AVERAGE MOMENT                      0.00       TIME AVG. MOMENT       4.57    
                                                (FROM FORCE     FIELD)
 LARGEST RESIDUAL MOMENT            8.218E-09   AT NODE          1   DOF  5
   INSTANCE:                                                                                 
 LARGEST INCREMENT OF ROTATION      5.676E-14   AT NODE          1   DOF  5
   INSTANCE: {assembly node}                                                                 
 LARGEST CORRECTION TO ROTATION    -3.146E-14   AT NODE          1   DOF  5
   INSTANCE: {assembly node}                                                                 
          THERE IS ZERO MOMENT    EVERYWHERE

  NUMBER OF EQUATIONS =      3708     NUMBER OF RHS =    1
  NUMBER OF FLOATING PT. OPERATIONS =  9.31E+07

  USING THE DIRECT SOLVER WITH   7 PROCESSORS

     CHECK POINT   START OF SOLVER    

     CHECK POINT  END OF SOLVER       

       ELAPSED USER TIME (SEC)      =  0.10000    
       ELAPSED SYSTEM TIME (SEC)    =   0.0000    
       ELAPSED TOTAL CPU TIME (SEC) =  0.10000    
       ELAPSED WALLCLOCK TIME (SEC) =          1

               CONVERGENCE CHECKS FOR EQUILIBRIUM ITERATION    13


 AVERAGE FORCE                       3.21       TIME AVG. FORCE        2.10    
 LARGEST RESIDUAL FORCE            -1.033E-03   AT NODE        183   DOF  3
   INSTANCE: CEINST                                                                          
 LARGEST INCREMENT OF DISP.         1.417E-05   AT NODE        185   DOF  3
   INSTANCE: PTOP                                                                            
 LARGEST CORRECTION TO DISP.        8.494E-07   AT NODE        164   DOF  3
   INSTANCE: PTOP                                                                            
          DISP.    CORRECTION TOO LARGE COMPARED TO DISP.    INCREMENT

 AVERAGE MOMENT                      0.00       TIME AVG. MOMENT       4.57    
                                                (FROM FORCE     FIELD)
 LARGEST RESIDUAL MOMENT            7.792E-09   AT NODE          1   DOF  5
   INSTANCE:                                                                                 
 LARGEST INCREMENT OF ROTATION      9.179E-14   AT NODE          1   DOF  5
   INSTANCE: {assembly node}                                                                 
 LARGEST CORRECTION TO ROTATION     4.615E-14   AT NODE          2   DOF  5
   INSTANCE: {assembly node}                                                                 
          THERE IS ZERO MOMENT    EVERYWHERE

  NUMBER OF EQUATIONS =      3708     NUMBER OF RHS =    1
  NUMBER OF FLOATING PT. OPERATIONS =  9.31E+07

  USING THE DIRECT SOLVER WITH   7 PROCESSORS

     CHECK POINT   START OF SOLVER    

     CHECK POINT  END OF SOLVER       

       ELAPSED USER TIME (SEC)      =   0.0000    
       ELAPSED SYSTEM TIME (SEC)    =   0.0000    
       ELAPSED TOTAL CPU TIME (SEC) =   0.0000    
       ELAPSED WALLCLOCK TIME (SEC) =          0

               CONVERGENCE CHECKS FOR EQUILIBRIUM ITERATION    14


 AVERAGE FORCE                       3.21       TIME AVG. FORCE        2.10    
 LARGEST RESIDUAL FORCE             9.905E-04   AT NODE        178   DOF  3
   INSTANCE: CEINST                                                                          
 LARGEST INCREMENT OF DISP.        -1.499E-05   AT NODE        185   DOF  3
   INSTANCE: PBOT                                                                            
 LARGEST CORRECTION TO DISP.       -8.204E-07   AT NODE        185   DOF  3
   INSTANCE: PBOT                                                                            
          DISP.    CORRECTION TOO LARGE COMPARED TO DISP.    INCREMENT

 AVERAGE MOMENT                      0.00       TIME AVG. MOMENT       4.57    
                                                (FROM FORCE     FIELD)
 LARGEST RESIDUAL MOMENT            7.506E-09   AT NODE          1   DOF  5
   INSTANCE:                                                                                 
 LARGEST INCREMENT OF ROTATION     -2.072E-14   AT NODE          2   DOF  5
   INSTANCE: {assembly node}                                                                 
 LARGEST CORRECTION TO ROTATION    -1.116E-13   AT NODE          1   DOF  5
   INSTANCE: {assembly node}                                                                 
          THERE IS ZERO MOMENT    EVERYWHERE

  NUMBER OF EQUATIONS =      3708     NUMBER OF RHS =    1
  NUMBER OF FLOATING PT. OPERATIONS =  9.31E+07

  USING THE DIRECT SOLVER WITH   7 PROCESSORS

     CHECK POINT   START OF SOLVER    

     CHECK POINT  END OF SOLVER       

       ELAPSED USER TIME (SEC)      =   0.0000    
       ELAPSED SYSTEM TIME (SEC)    =   0.0000    
       ELAPSED TOTAL CPU TIME (SEC) =   0.0000    
       ELAPSED WALLCLOCK TIME (SEC) =          0

               CONVERGENCE CHECKS FOR EQUILIBRIUM ITERATION    15


 AVERAGE FORCE                       3.21       TIME AVG. FORCE        2.10    
 LARGEST RESIDUAL FORCE            -9.616E-04   AT NODE        182   DOF  3
   INSTANCE: CEINST                                                                          
 LARGEST INCREMENT OF DISP.         1.578E-05   AT NODE        185   DOF  3
   INSTANCE: PTOP                                                                            
 LARGEST CORRECTION TO DISP.        7.923E-07   AT NODE        164   DOF  3
   INSTANCE: PTOP                                                                            
          DISP.    CORRECTION TOO LARGE COMPARED TO DISP.    INCREMENT

 AVERAGE MOMENT                      0.00       TIME AVG. MOMENT       4.57    
                                                (FROM FORCE     FIELD)
 LARGEST RESIDUAL MOMENT           -7.228E-09   AT NODE          2   DOF  5
   INSTANCE:                                                                                 
 LARGEST INCREMENT OF ROTATION      6.737E-14   AT NODE          1   DOF  5
   INSTANCE: {assembly node}                                                                 
 LARGEST CORRECTION TO ROTATION     8.720E-14   AT NODE          1   DOF  5
   INSTANCE: {assembly node}                                                                 
          THERE IS ZERO MOMENT    EVERYWHERE

  NUMBER OF EQUATIONS =      3708     NUMBER OF RHS =    1
  NUMBER OF FLOATING PT. OPERATIONS =  9.31E+07

  USING THE DIRECT SOLVER WITH   7 PROCESSORS

     CHECK POINT   START OF SOLVER    

     CHECK POINT  END OF SOLVER       

       ELAPSED USER TIME (SEC)      =   0.0000    
       ELAPSED SYSTEM TIME (SEC)    =   0.0000    
       ELAPSED TOTAL CPU TIME (SEC) =   0.0000    
       ELAPSED WALLCLOCK TIME (SEC) =          0

               CONVERGENCE CHECKS FOR EQUILIBRIUM ITERATION    16


 AVERAGE FORCE                       3.21       TIME AVG. FORCE        2.10    
 LARGEST RESIDUAL FORCE            -9.172E-04   AT NODE        182   DOF  3
   INSTANCE: CEINST                                                                          
 LARGEST INCREMENT OF DISP.         1.655E-05   AT NODE        185   DOF  3
   INSTANCE: PTOP                                                                            
 LARGEST CORRECTION TO DISP.       -7.702E-07   AT NODE        164   DOF  3
   INSTANCE: PBOT                                                                            
          DISP.    CORRECTION TOO LARGE COMPARED TO DISP.    INCREMENT

 AVERAGE MOMENT                      0.00       TIME AVG. MOMENT       4.57    
                                                (FROM FORCE     FIELD)
 LARGEST RESIDUAL MOMENT            7.010E-09   AT NODE          1   DOF  5
   INSTANCE:                                                                                 
 LARGEST INCREMENT OF ROTATION      6.822E-14   AT NODE          1   DOF  5
   INSTANCE: {assembly node}                                                                 
 LARGEST CORRECTION TO ROTATION    -1.024E-14   AT NODE          2   DOF  5
   INSTANCE: {assembly node}                                                                 
          THERE IS ZERO MOMENT    EVERYWHERE
 

 ***NOTE: THE SOLUTION FAILS TO CONVERGE IN THE MAXIMUM NUMBER OF EQUILIBRIUM 
          ITERATIONS ALLOWED.
 

 ***ERROR: TOO MANY ATTEMPTS MADE FOR THIS INCREMENT

 ***ERROR: THE ANALYSIS HAS BEEN TERMINATED DUE TO PREVIOUS ERRORS. ALL OUTPUT 
           REQUESTS HAVE BEEN WRITTEN FOR THE LAST CONVERGED INCREMENT.



     ANALYSIS SUMMARY:
     TOTAL OF         79  INCREMENTS
                      21  CUTBACKS IN AUTOMATIC INCREMENTATION
                     459  ITERATIONS INCLUDING CONTACT ITERATIONS IF PRESENT
                     459  PASSES THROUGH THE EQUATION SOLVER OF WHICH 
                     459  INVOLVE MATRIX DECOMPOSITION, INCLUDING
                       0  DECOMPOSITION(S) OF THE MASS MATRIX
                       1  REORDERING OF EQUATIONS TO MINIMIZE WAVEFRONT
                       0  ADDITIONAL RESIDUAL EVALUATIONS FOR LINE SEARCHES
                       0  ADDITIONAL OPERATOR EVALUATIONS FOR LINE SEARCHES
                       8  WARNING MESSAGES DURING USER INPUT PROCESSING
                      11  WARNING MESSAGES DURING ANALYSIS
                       2  ANALYSIS WARNINGS ARE NUMERICAL PROBLEM MESSAGES
                       0  ANALYSIS WARNINGS ARE NEGATIVE EIGENVALUE MESSAGES
                       2  ERROR MESSAGES



     JOB TIME SUMMARY
       USER TIME (SEC)      =   130.00    
       SYSTEM TIME (SEC)    =   14.300    
       TOTAL CPU TIME (SEC) =   144.30    
       WALLCLOCK TIME (SEC) =         49
